
---------- Begin Simulation Statistics ----------
simSeconds                                   0.305454                       # Number of seconds simulated (Second)
simTicks                                 305454236000                       # Number of ticks simulated (Tick)
finalTick                                305454236000                       # Number of ticks from beginning of simulation (restored from checkpoints and never reset) (Tick)
simFreq                                  1000000000000                       # The number of ticks per simulated second ((Tick/Second))
hostSeconds                                   5015.84                       # Real time elapsed on the host (Second)
hostTickRate                                 60897911                       # The number of ticks simulated per host second (ticks/s) ((Tick/Second))
hostMemory                                    1194204                       # Number of bytes of host memory used (Byte)
simInsts                                    414059434                       # Number of instructions simulated (Count)
simOps                                      824295576                       # Number of ops (including micro ops) simulated (Count)
hostInstRate                                    82550                       # Simulator instruction rate (inst/s) ((Count/Second))
hostOpRate                                     164338                       # Simulator op (including micro ops) rate (op/s) ((Count/Second))
system.clk_domain.clock                           500                       # Clock period in ticks (Tick)
system.clk_domain.voltage_domain.voltage            1                       # Voltage in Volts (Volt)
system.cpu.numCycles                        610908473                       # Number of cpu cycles simulated (Cycle)
system.cpu.numWorkItemsStarted                      0                       # Number of work items this cpu started (Count)
system.cpu.numWorkItemsCompleted                    0                       # Number of work items this cpu completed (Count)
system.cpu.instsAdded                       910864959                       # Number of instructions added to the IQ (excludes non-spec) (Count)
system.cpu.nonSpecInstsAdded                 25730551                       # Number of non-speculative instructions added to the IQ (Count)
system.cpu.instsIssued                      916280659                       # Number of instructions issued (Count)
system.cpu.squashedInstsIssued                  41849                       # Number of squashed instructions issued (Count)
system.cpu.squashedInstsExamined            112299923                       # Number of squashed instructions iterated over during squash; mainly for profiling (Count)
system.cpu.squashedOperandsExamined         144889939                       # Number of squashed operands that are examined and possibly removed from graph (Count)
system.cpu.squashedNonSpecRemoved                  37                       # Number of squashed non-spec instructions that were removed (Count)
system.cpu.numIssuedDist::samples           610592800                       # Number of insts issued each cycle (Count)
system.cpu.numIssuedDist::mean               1.500641                       # Number of insts issued each cycle (Count)
system.cpu.numIssuedDist::stdev              1.647918                       # Number of insts issued each cycle (Count)
system.cpu.numIssuedDist::underflows                0      0.00%      0.00% # Number of insts issued each cycle (Count)
system.cpu.numIssuedDist::0                 241615337     39.57%     39.57% # Number of insts issued each cycle (Count)
system.cpu.numIssuedDist::1                 121686487     19.93%     59.50% # Number of insts issued each cycle (Count)
system.cpu.numIssuedDist::2                  91324487     14.96%     74.46% # Number of insts issued each cycle (Count)
system.cpu.numIssuedDist::3                  65526374     10.73%     85.19% # Number of insts issued each cycle (Count)
system.cpu.numIssuedDist::4                  49826461      8.16%     93.35% # Number of insts issued each cycle (Count)
system.cpu.numIssuedDist::5                  28081571      4.60%     97.95% # Number of insts issued each cycle (Count)
system.cpu.numIssuedDist::6                  12090787      1.98%     99.93% # Number of insts issued each cycle (Count)
system.cpu.numIssuedDist::7                    422713      0.07%    100.00% # Number of insts issued each cycle (Count)
system.cpu.numIssuedDist::8                     18583      0.00%    100.00% # Number of insts issued each cycle (Count)
system.cpu.numIssuedDist::overflows                 0      0.00%    100.00% # Number of insts issued each cycle (Count)
system.cpu.numIssuedDist::min_value                 0                       # Number of insts issued each cycle (Count)
system.cpu.numIssuedDist::max_value                 8                       # Number of insts issued each cycle (Count)
system.cpu.numIssuedDist::total             610592800                       # Number of insts issued each cycle (Count)
system.cpu.statFuBusy::No_OpClass                   0      0.00%      0.00% # attempts to use FU when none available (Count)
system.cpu.statFuBusy::IntAlu                 2862787     40.04%     40.04% # attempts to use FU when none available (Count)
system.cpu.statFuBusy::IntMult                      0      0.00%     40.04% # attempts to use FU when none available (Count)
system.cpu.statFuBusy::IntDiv                       0      0.00%     40.04% # attempts to use FU when none available (Count)
system.cpu.statFuBusy::FloatAdd                     0      0.00%     40.04% # attempts to use FU when none available (Count)
system.cpu.statFuBusy::FloatCmp                     0      0.00%     40.04% # attempts to use FU when none available (Count)
system.cpu.statFuBusy::FloatCvt                     0      0.00%     40.04% # attempts to use FU when none available (Count)
system.cpu.statFuBusy::FloatMult                    0      0.00%     40.04% # attempts to use FU when none available (Count)
system.cpu.statFuBusy::FloatMultAcc                 0      0.00%     40.04% # attempts to use FU when none available (Count)
system.cpu.statFuBusy::FloatDiv                     0      0.00%     40.04% # attempts to use FU when none available (Count)
system.cpu.statFuBusy::FloatMisc                    0      0.00%     40.04% # attempts to use FU when none available (Count)
system.cpu.statFuBusy::FloatSqrt                    0      0.00%     40.04% # attempts to use FU when none available (Count)
system.cpu.statFuBusy::SimdAdd                      0      0.00%     40.04% # attempts to use FU when none available (Count)
system.cpu.statFuBusy::SimdAddAcc                   0      0.00%     40.04% # attempts to use FU when none available (Count)
system.cpu.statFuBusy::SimdAlu                     16      0.00%     40.04% # attempts to use FU when none available (Count)
system.cpu.statFuBusy::SimdCmp                      0      0.00%     40.04% # attempts to use FU when none available (Count)
system.cpu.statFuBusy::SimdCvt                      7      0.00%     40.04% # attempts to use FU when none available (Count)
system.cpu.statFuBusy::SimdMisc                     1      0.00%     40.04% # attempts to use FU when none available (Count)
system.cpu.statFuBusy::SimdMult                     0      0.00%     40.04% # attempts to use FU when none available (Count)
system.cpu.statFuBusy::SimdMultAcc                  0      0.00%     40.04% # attempts to use FU when none available (Count)
system.cpu.statFuBusy::SimdShift                    0      0.00%     40.04% # attempts to use FU when none available (Count)
system.cpu.statFuBusy::SimdShiftAcc                 0      0.00%     40.04% # attempts to use FU when none available (Count)
system.cpu.statFuBusy::SimdDiv                      0      0.00%     40.04% # attempts to use FU when none available (Count)
system.cpu.statFuBusy::SimdSqrt                     0      0.00%     40.04% # attempts to use FU when none available (Count)
system.cpu.statFuBusy::SimdFloatAdd                 0      0.00%     40.04% # attempts to use FU when none available (Count)
system.cpu.statFuBusy::SimdFloatAlu                 0      0.00%     40.04% # attempts to use FU when none available (Count)
system.cpu.statFuBusy::SimdFloatCmp                 0      0.00%     40.04% # attempts to use FU when none available (Count)
system.cpu.statFuBusy::SimdFloatCvt                 0      0.00%     40.04% # attempts to use FU when none available (Count)
system.cpu.statFuBusy::SimdFloatDiv                 0      0.00%     40.04% # attempts to use FU when none available (Count)
system.cpu.statFuBusy::SimdFloatMisc                0      0.00%     40.04% # attempts to use FU when none available (Count)
system.cpu.statFuBusy::SimdFloatMult                0      0.00%     40.04% # attempts to use FU when none available (Count)
system.cpu.statFuBusy::SimdFloatMultAcc             0      0.00%     40.04% # attempts to use FU when none available (Count)
system.cpu.statFuBusy::SimdFloatSqrt                0      0.00%     40.04% # attempts to use FU when none available (Count)
system.cpu.statFuBusy::SimdReduceAdd                0      0.00%     40.04% # attempts to use FU when none available (Count)
system.cpu.statFuBusy::SimdReduceAlu                0      0.00%     40.04% # attempts to use FU when none available (Count)
system.cpu.statFuBusy::SimdReduceCmp                0      0.00%     40.04% # attempts to use FU when none available (Count)
system.cpu.statFuBusy::SimdFloatReduceAdd            0      0.00%     40.04% # attempts to use FU when none available (Count)
system.cpu.statFuBusy::SimdFloatReduceCmp            0      0.00%     40.04% # attempts to use FU when none available (Count)
system.cpu.statFuBusy::SimdAes                      0      0.00%     40.04% # attempts to use FU when none available (Count)
system.cpu.statFuBusy::SimdAesMix                   0      0.00%     40.04% # attempts to use FU when none available (Count)
system.cpu.statFuBusy::SimdSha1Hash                 0      0.00%     40.04% # attempts to use FU when none available (Count)
system.cpu.statFuBusy::SimdSha1Hash2                0      0.00%     40.04% # attempts to use FU when none available (Count)
system.cpu.statFuBusy::SimdSha256Hash               0      0.00%     40.04% # attempts to use FU when none available (Count)
system.cpu.statFuBusy::SimdSha256Hash2              0      0.00%     40.04% # attempts to use FU when none available (Count)
system.cpu.statFuBusy::SimdShaSigma2                0      0.00%     40.04% # attempts to use FU when none available (Count)
system.cpu.statFuBusy::SimdShaSigma3                0      0.00%     40.04% # attempts to use FU when none available (Count)
system.cpu.statFuBusy::SimdPredAlu                  0      0.00%     40.04% # attempts to use FU when none available (Count)
system.cpu.statFuBusy::MemRead                4274467     59.78%     99.82% # attempts to use FU when none available (Count)
system.cpu.statFuBusy::MemWrite                 12980      0.18%    100.00% # attempts to use FU when none available (Count)
system.cpu.statFuBusy::FloatMemRead                21      0.00%    100.00% # attempts to use FU when none available (Count)
system.cpu.statFuBusy::FloatMemWrite               23      0.00%    100.00% # attempts to use FU when none available (Count)
system.cpu.statFuBusy::IprAccess                    0      0.00%    100.00% # attempts to use FU when none available (Count)
system.cpu.statFuBusy::InstPrefetch                 0      0.00%    100.00% # attempts to use FU when none available (Count)
system.cpu.statIssuedInstType_0::No_OpClass      4959246      0.54%      0.54% # Number of instructions issued per FU type, per thread (Count)
system.cpu.statIssuedInstType_0::IntAlu     687042258     74.98%     75.52% # Number of instructions issued per FU type, per thread (Count)
system.cpu.statIssuedInstType_0::IntMult        60746      0.01%     75.53% # Number of instructions issued per FU type, per thread (Count)
system.cpu.statIssuedInstType_0::IntDiv          1674      0.00%     75.53% # Number of instructions issued per FU type, per thread (Count)
system.cpu.statIssuedInstType_0::FloatAdd        43603      0.00%     75.53% # Number of instructions issued per FU type, per thread (Count)
system.cpu.statIssuedInstType_0::FloatCmp            0      0.00%     75.53% # Number of instructions issued per FU type, per thread (Count)
system.cpu.statIssuedInstType_0::FloatCvt           64      0.00%     75.53% # Number of instructions issued per FU type, per thread (Count)
system.cpu.statIssuedInstType_0::FloatMult            0      0.00%     75.53% # Number of instructions issued per FU type, per thread (Count)
system.cpu.statIssuedInstType_0::FloatMultAcc            0      0.00%     75.53% # Number of instructions issued per FU type, per thread (Count)
system.cpu.statIssuedInstType_0::FloatDiv            0      0.00%     75.53% # Number of instructions issued per FU type, per thread (Count)
system.cpu.statIssuedInstType_0::FloatMisc            0      0.00%     75.53% # Number of instructions issued per FU type, per thread (Count)
system.cpu.statIssuedInstType_0::FloatSqrt            0      0.00%     75.53% # Number of instructions issued per FU type, per thread (Count)
system.cpu.statIssuedInstType_0::SimdAdd          581      0.00%     75.53% # Number of instructions issued per FU type, per thread (Count)
system.cpu.statIssuedInstType_0::SimdAddAcc            0      0.00%     75.53% # Number of instructions issued per FU type, per thread (Count)
system.cpu.statIssuedInstType_0::SimdAlu       115402      0.01%     75.55% # Number of instructions issued per FU type, per thread (Count)
system.cpu.statIssuedInstType_0::SimdCmp            8      0.00%     75.55% # Number of instructions issued per FU type, per thread (Count)
system.cpu.statIssuedInstType_0::SimdCvt       115023      0.01%     75.56% # Number of instructions issued per FU type, per thread (Count)
system.cpu.statIssuedInstType_0::SimdMisc       271008      0.03%     75.59% # Number of instructions issued per FU type, per thread (Count)
system.cpu.statIssuedInstType_0::SimdMult            0      0.00%     75.59% # Number of instructions issued per FU type, per thread (Count)
system.cpu.statIssuedInstType_0::SimdMultAcc            0      0.00%     75.59% # Number of instructions issued per FU type, per thread (Count)
system.cpu.statIssuedInstType_0::SimdShift          942      0.00%     75.59% # Number of instructions issued per FU type, per thread (Count)
system.cpu.statIssuedInstType_0::SimdShiftAcc            0      0.00%     75.59% # Number of instructions issued per FU type, per thread (Count)
system.cpu.statIssuedInstType_0::SimdDiv            0      0.00%     75.59% # Number of instructions issued per FU type, per thread (Count)
system.cpu.statIssuedInstType_0::SimdSqrt            0      0.00%     75.59% # Number of instructions issued per FU type, per thread (Count)
system.cpu.statIssuedInstType_0::SimdFloatAdd            0      0.00%     75.59% # Number of instructions issued per FU type, per thread (Count)
system.cpu.statIssuedInstType_0::SimdFloatAlu            0      0.00%     75.59% # Number of instructions issued per FU type, per thread (Count)
system.cpu.statIssuedInstType_0::SimdFloatCmp            0      0.00%     75.59% # Number of instructions issued per FU type, per thread (Count)
system.cpu.statIssuedInstType_0::SimdFloatCvt            0      0.00%     75.59% # Number of instructions issued per FU type, per thread (Count)
system.cpu.statIssuedInstType_0::SimdFloatDiv            0      0.00%     75.59% # Number of instructions issued per FU type, per thread (Count)
system.cpu.statIssuedInstType_0::SimdFloatMisc            0      0.00%     75.59% # Number of instructions issued per FU type, per thread (Count)
system.cpu.statIssuedInstType_0::SimdFloatMult            0      0.00%     75.59% # Number of instructions issued per FU type, per thread (Count)
system.cpu.statIssuedInstType_0::SimdFloatMultAcc            0      0.00%     75.59% # Number of instructions issued per FU type, per thread (Count)
system.cpu.statIssuedInstType_0::SimdFloatSqrt            0      0.00%     75.59% # Number of instructions issued per FU type, per thread (Count)
system.cpu.statIssuedInstType_0::SimdReduceAdd            0      0.00%     75.59% # Number of instructions issued per FU type, per thread (Count)
system.cpu.statIssuedInstType_0::SimdReduceAlu            0      0.00%     75.59% # Number of instructions issued per FU type, per thread (Count)
system.cpu.statIssuedInstType_0::SimdReduceCmp            0      0.00%     75.59% # Number of instructions issued per FU type, per thread (Count)
system.cpu.statIssuedInstType_0::SimdFloatReduceAdd            0      0.00%     75.59% # Number of instructions issued per FU type, per thread (Count)
system.cpu.statIssuedInstType_0::SimdFloatReduceCmp            0      0.00%     75.59% # Number of instructions issued per FU type, per thread (Count)
system.cpu.statIssuedInstType_0::SimdAes            0      0.00%     75.59% # Number of instructions issued per FU type, per thread (Count)
system.cpu.statIssuedInstType_0::SimdAesMix            0      0.00%     75.59% # Number of instructions issued per FU type, per thread (Count)
system.cpu.statIssuedInstType_0::SimdSha1Hash            0      0.00%     75.59% # Number of instructions issued per FU type, per thread (Count)
system.cpu.statIssuedInstType_0::SimdSha1Hash2            0      0.00%     75.59% # Number of instructions issued per FU type, per thread (Count)
system.cpu.statIssuedInstType_0::SimdSha256Hash            0      0.00%     75.59% # Number of instructions issued per FU type, per thread (Count)
system.cpu.statIssuedInstType_0::SimdSha256Hash2            0      0.00%     75.59% # Number of instructions issued per FU type, per thread (Count)
system.cpu.statIssuedInstType_0::SimdShaSigma2            0      0.00%     75.59% # Number of instructions issued per FU type, per thread (Count)
system.cpu.statIssuedInstType_0::SimdShaSigma3            0      0.00%     75.59% # Number of instructions issued per FU type, per thread (Count)
system.cpu.statIssuedInstType_0::SimdPredAlu            0      0.00%     75.59% # Number of instructions issued per FU type, per thread (Count)
system.cpu.statIssuedInstType_0::MemRead    150172699     16.39%     91.98% # Number of instructions issued per FU type, per thread (Count)
system.cpu.statIssuedInstType_0::MemWrite     73308037      8.00%     99.98% # Number of instructions issued per FU type, per thread (Count)
system.cpu.statIssuedInstType_0::FloatMemRead       102403      0.01%     99.99% # Number of instructions issued per FU type, per thread (Count)
system.cpu.statIssuedInstType_0::FloatMemWrite        86965      0.01%    100.00% # Number of instructions issued per FU type, per thread (Count)
system.cpu.statIssuedInstType_0::IprAccess            0      0.00%    100.00% # Number of instructions issued per FU type, per thread (Count)
system.cpu.statIssuedInstType_0::InstPrefetch            0      0.00%    100.00% # Number of instructions issued per FU type, per thread (Count)
system.cpu.statIssuedInstType_0::total      916280659                       # Number of instructions issued per FU type, per thread (Count)
system.cpu.issueRate                         1.499866                       # Inst issue rate ((Count/Cycle))
system.cpu.fuBusy                             7150302                       # FU busy when requested (Count)
system.cpu.fuBusyRate                        0.007804                       # FU busy rate (busy events/executed inst) ((Count/Count))
system.cpu.intInstQueueReads               2448674450                       # Number of integer instruction queue reads (Count)
system.cpu.intInstQueueWrites              1048066823                       # Number of integer instruction queue writes (Count)
system.cpu.intInstQueueWakeupAccesses       897017747                       # Number of integer instruction queue wakeup accesses (Count)
system.cpu.fpInstQueueReads                   1671819                       # Number of floating instruction queue reads (Count)
system.cpu.fpInstQueueWrites                   829850                       # Number of floating instruction queue writes (Count)
system.cpu.fpInstQueueWakeupAccesses           819721                       # Number of floating instruction queue wakeup accesses (Count)
system.cpu.vecInstQueueReads                        0                       # Number of vector instruction queue reads (Count)
system.cpu.vecInstQueueWrites                       0                       # Number of vector instruction queue writes (Count)
system.cpu.vecInstQueueWakeupAccesses               0                       # Number of vector instruction queue wakeup accesses (Count)
system.cpu.intAluAccesses                   917635781                       # Number of integer alu accesses (Count)
system.cpu.fpAluAccesses                       835934                       # Number of floating point alu accesses (Count)
system.cpu.vecAluAccesses                           0                       # Number of vector alu accesses (Count)
system.cpu.numInsts                         903204292                       # Number of executed instructions (Count)
system.cpu.numLoadInsts                     147726518                       # Number of load instructions executed (Count)
system.cpu.numSquashedInsts                  13076367                       # Number of squashed instructions skipped in execute (Count)
system.cpu.numSwp                                   0                       # Number of swp insts executed (Count)
system.cpu.numNop                                   0                       # Number of nop insts executed (Count)
system.cpu.numRefs                          220133688                       # Number of memory reference insts executed (Count)
system.cpu.numBranches                       82259662                       # Number of branches executed (Count)
system.cpu.numStoreInsts                     72407170                       # Number of stores executed (Count)
system.cpu.numRate                           1.478461                       # Inst execution rate ((Count/Cycle))
system.cpu.timesIdled                           72590                       # Number of times that the entire CPU went into an idle state and unscheduled itself (Count)
system.cpu.idleCycles                          315673                       # Total number of cycles that the CPU has spent unscheduled due to idling (Cycle)
system.cpu.committedInsts                   414059434                       # Number of Instructions Simulated (Count)
system.cpu.committedOps                     824295576                       # Number of Ops (including micro ops) Simulated (Count)
system.cpu.cpi                               1.475413                       # CPI: Cycles Per Instruction ((Cycle/Count))
system.cpu.totalCpi                          1.475413                       # CPI: Total CPI of All Threads ((Cycle/Count))
system.cpu.ipc                               0.677777                       # IPC: Instructions Per Cycle ((Count/Cycle))
system.cpu.totalIpc                          0.677777                       # IPC: Total IPC of All Threads ((Count/Cycle))
system.cpu.intRegfileReads                  997288145                       # Number of integer regfile reads (Count)
system.cpu.intRegfileWrites                 659606650                       # Number of integer regfile writes (Count)
system.cpu.fpRegfileReads                     1363474                       # Number of floating regfile reads (Count)
system.cpu.fpRegfileWrites                     675816                       # Number of floating regfile writes (Count)
system.cpu.ccRegfileReads                   385214468                       # number of cc regfile reads (Count)
system.cpu.ccRegfileWrites                  284367081                       # number of cc regfile writes (Count)
system.cpu.miscRegfileReads                 413864778                       # number of misc regfile reads (Count)
system.cpu.miscRegfileWrites                       36                       # number of misc regfile writes (Count)
system.cpu.MemDepUnit__0.insertedLoads      151592750                       # Number of loads inserted to the mem dependence unit. (Count)
system.cpu.MemDepUnit__0.insertedStores      75386931                       # Number of stores inserted to the mem dependence unit. (Count)
system.cpu.MemDepUnit__0.conflictingLoads     51463006                       # Number of conflicting loads. (Count)
system.cpu.MemDepUnit__0.conflictingStores     25745938                       # Number of conflicting stores. (Count)
system.cpu.MemDepUnit__1.insertedLoads              0                       # Number of loads inserted to the mem dependence unit. (Count)
system.cpu.MemDepUnit__1.insertedStores             0                       # Number of stores inserted to the mem dependence unit. (Count)
system.cpu.MemDepUnit__1.conflictingLoads            0                       # Number of conflicting loads. (Count)
system.cpu.MemDepUnit__1.conflictingStores            0                       # Number of conflicting stores. (Count)
system.cpu.MemDepUnit__2.insertedLoads              0                       # Number of loads inserted to the mem dependence unit. (Count)
system.cpu.MemDepUnit__2.insertedStores             0                       # Number of stores inserted to the mem dependence unit. (Count)
system.cpu.MemDepUnit__2.conflictingLoads            0                       # Number of conflicting loads. (Count)
system.cpu.MemDepUnit__2.conflictingStores            0                       # Number of conflicting stores. (Count)
system.cpu.MemDepUnit__3.insertedLoads              0                       # Number of loads inserted to the mem dependence unit. (Count)
system.cpu.MemDepUnit__3.insertedStores             0                       # Number of stores inserted to the mem dependence unit. (Count)
system.cpu.MemDepUnit__3.conflictingLoads            0                       # Number of conflicting loads. (Count)
system.cpu.MemDepUnit__3.conflictingStores            0                       # Number of conflicting stores. (Count)
system.cpu.branchPred.lookups               108585535                       # Number of BP lookups (Count)
system.cpu.branchPred.condPredicted          89200770                       # Number of conditional branches predicted (Count)
system.cpu.branchPred.condIncorrect           6173443                       # Number of conditional branches incorrect (Count)
system.cpu.branchPred.BTBLookups             63235177                       # Number of BTB lookups (Count)
system.cpu.branchPred.BTBUpdates              2404220                       # Number of BTB updates (Count)
system.cpu.branchPred.BTBHits                63174290                       # Number of BTB hits (Count)
system.cpu.branchPred.BTBHitRatio            0.999037                       # BTB Hit Ratio (Ratio)
system.cpu.branchPred.RASUsed                 6250653                       # Number of times the RAS was used to get a target. (Count)
system.cpu.branchPred.RASIncorrect                877                       # Number of incorrect RAS predictions. (Count)
system.cpu.branchPred.indirectLookups         4831154                       # Number of indirect predictor lookups. (Count)
system.cpu.branchPred.indirectHits            4829974                       # Number of indirect target hits. (Count)
system.cpu.branchPred.indirectMisses             1180                       # Number of indirect misses. (Count)
system.cpu.branchPred.indirectMispredicted          397                       # Number of mispredicted indirect branches. (Count)
system.cpu.commit.commitSquashedInsts       112299017                       # The number of squashed insts skipped by commit (Count)
system.cpu.commit.commitNonSpecStalls        25730514                       # The number of times commit has been forced to stall to communicate backwards (Count)
system.cpu.commit.branchMispredicts           6172592                       # The number of times a branch was mispredicted (Count)
system.cpu.commit.numCommittedDist::samples    593934263                       # Number of insts commited each cycle (Count)
system.cpu.commit.numCommittedDist::mean     1.387857                       # Number of insts commited each cycle (Count)
system.cpu.commit.numCommittedDist::stdev     2.204136                       # Number of insts commited each cycle (Count)
system.cpu.commit.numCommittedDist::underflows            0      0.00%      0.00% # Number of insts commited each cycle (Count)
system.cpu.commit.numCommittedDist::0       322084032     54.23%     54.23% # Number of insts commited each cycle (Count)
system.cpu.commit.numCommittedDist::1       103432880     17.41%     71.64% # Number of insts commited each cycle (Count)
system.cpu.commit.numCommittedDist::2        39855506      6.71%     78.35% # Number of insts commited each cycle (Count)
system.cpu.commit.numCommittedDist::3        56255443      9.47%     87.83% # Number of insts commited each cycle (Count)
system.cpu.commit.numCommittedDist::4        11989751      2.02%     89.84% # Number of insts commited each cycle (Count)
system.cpu.commit.numCommittedDist::5         8830576      1.49%     91.33% # Number of insts commited each cycle (Count)
system.cpu.commit.numCommittedDist::6        13413977      2.26%     93.59% # Number of insts commited each cycle (Count)
system.cpu.commit.numCommittedDist::7         4787175      0.81%     94.40% # Number of insts commited each cycle (Count)
system.cpu.commit.numCommittedDist::8        33284923      5.60%    100.00% # Number of insts commited each cycle (Count)
system.cpu.commit.numCommittedDist::overflows            0      0.00%    100.00% # Number of insts commited each cycle (Count)
system.cpu.commit.numCommittedDist::min_value            0                       # Number of insts commited each cycle (Count)
system.cpu.commit.numCommittedDist::max_value            8                       # Number of insts commited each cycle (Count)
system.cpu.commit.numCommittedDist::total    593934263                       # Number of insts commited each cycle (Count)
system.cpu.commit.instsCommitted            414059434                       # Number of instructions committed (Count)
system.cpu.commit.opsCommitted              824295576                       # Number of ops (including micro ops) committed (Count)
system.cpu.commit.memRefs                   207435577                       # Number of memory references committed (Count)
system.cpu.commit.loads                     137950703                       # Number of loads committed (Count)
system.cpu.commit.amos                              0                       # Number of atomic instructions committed (Count)
system.cpu.commit.membars                    17153652                       # Number of memory barriers committed (Count)
system.cpu.commit.branches                   78980082                       # Number of branches committed (Count)
system.cpu.commit.vectorInstructions                0                       # Number of committed Vector instructions. (Count)
system.cpu.commit.floating                     817052                       # Number of committed floating point instructions. (Count)
system.cpu.commit.integer                   801096026                       # Number of committed integer instructions. (Count)
system.cpu.commit.functionCalls               5401128                       # Number of function calls committed. (Count)
system.cpu.commit.committedInstType_0::No_OpClass      4602123      0.56%      0.56% # Class of committed instruction (Count)
system.cpu.commit.committedInstType_0::IntAlu    611651434     74.20%     74.76% # Class of committed instruction (Count)
system.cpu.commit.committedInstType_0::IntMult        60630      0.01%     74.77% # Class of committed instruction (Count)
system.cpu.commit.committedInstType_0::IntDiv         1557      0.00%     74.77% # Class of committed instruction (Count)
system.cpu.commit.committedInstType_0::FloatAdd        43058      0.01%     74.77% # Class of committed instruction (Count)
system.cpu.commit.committedInstType_0::FloatCmp            0      0.00%     74.77% # Class of committed instruction (Count)
system.cpu.commit.committedInstType_0::FloatCvt           64      0.00%     74.77% # Class of committed instruction (Count)
system.cpu.commit.committedInstType_0::FloatMult            0      0.00%     74.77% # Class of committed instruction (Count)
system.cpu.commit.committedInstType_0::FloatMultAcc            0      0.00%     74.77% # Class of committed instruction (Count)
system.cpu.commit.committedInstType_0::FloatDiv            0      0.00%     74.77% # Class of committed instruction (Count)
system.cpu.commit.committedInstType_0::FloatMisc            0      0.00%     74.77% # Class of committed instruction (Count)
system.cpu.commit.committedInstType_0::FloatSqrt            0      0.00%     74.77% # Class of committed instruction (Count)
system.cpu.commit.committedInstType_0::SimdAdd          472      0.00%     74.77% # Class of committed instruction (Count)
system.cpu.commit.committedInstType_0::SimdAddAcc            0      0.00%     74.77% # Class of committed instruction (Count)
system.cpu.commit.committedInstType_0::SimdAlu       114694      0.01%     74.79% # Class of committed instruction (Count)
system.cpu.commit.committedInstType_0::SimdCmp            6      0.00%     74.79% # Class of committed instruction (Count)
system.cpu.commit.committedInstType_0::SimdCvt       114694      0.01%     74.80% # Class of committed instruction (Count)
system.cpu.commit.committedInstType_0::SimdMisc       270880      0.03%     74.83% # Class of committed instruction (Count)
system.cpu.commit.committedInstType_0::SimdMult            0      0.00%     74.83% # Class of committed instruction (Count)
system.cpu.commit.committedInstType_0::SimdMultAcc            0      0.00%     74.83% # Class of committed instruction (Count)
system.cpu.commit.committedInstType_0::SimdShift          387      0.00%     74.83% # Class of committed instruction (Count)
system.cpu.commit.committedInstType_0::SimdShiftAcc            0      0.00%     74.83% # Class of committed instruction (Count)
system.cpu.commit.committedInstType_0::SimdDiv            0      0.00%     74.83% # Class of committed instruction (Count)
system.cpu.commit.committedInstType_0::SimdSqrt            0      0.00%     74.83% # Class of committed instruction (Count)
system.cpu.commit.committedInstType_0::SimdFloatAdd            0      0.00%     74.83% # Class of committed instruction (Count)
system.cpu.commit.committedInstType_0::SimdFloatAlu            0      0.00%     74.83% # Class of committed instruction (Count)
system.cpu.commit.committedInstType_0::SimdFloatCmp            0      0.00%     74.83% # Class of committed instruction (Count)
system.cpu.commit.committedInstType_0::SimdFloatCvt            0      0.00%     74.83% # Class of committed instruction (Count)
system.cpu.commit.committedInstType_0::SimdFloatDiv            0      0.00%     74.83% # Class of committed instruction (Count)
system.cpu.commit.committedInstType_0::SimdFloatMisc            0      0.00%     74.83% # Class of committed instruction (Count)
system.cpu.commit.committedInstType_0::SimdFloatMult            0      0.00%     74.83% # Class of committed instruction (Count)
system.cpu.commit.committedInstType_0::SimdFloatMultAcc            0      0.00%     74.83% # Class of committed instruction (Count)
system.cpu.commit.committedInstType_0::SimdFloatSqrt            0      0.00%     74.83% # Class of committed instruction (Count)
system.cpu.commit.committedInstType_0::SimdReduceAdd            0      0.00%     74.83% # Class of committed instruction (Count)
system.cpu.commit.committedInstType_0::SimdReduceAlu            0      0.00%     74.83% # Class of committed instruction (Count)
system.cpu.commit.committedInstType_0::SimdReduceCmp            0      0.00%     74.83% # Class of committed instruction (Count)
system.cpu.commit.committedInstType_0::SimdFloatReduceAdd            0      0.00%     74.83% # Class of committed instruction (Count)
system.cpu.commit.committedInstType_0::SimdFloatReduceCmp            0      0.00%     74.83% # Class of committed instruction (Count)
system.cpu.commit.committedInstType_0::SimdAes            0      0.00%     74.83% # Class of committed instruction (Count)
system.cpu.commit.committedInstType_0::SimdAesMix            0      0.00%     74.83% # Class of committed instruction (Count)
system.cpu.commit.committedInstType_0::SimdSha1Hash            0      0.00%     74.83% # Class of committed instruction (Count)
system.cpu.commit.committedInstType_0::SimdSha1Hash2            0      0.00%     74.83% # Class of committed instruction (Count)
system.cpu.commit.committedInstType_0::SimdSha256Hash            0      0.00%     74.83% # Class of committed instruction (Count)
system.cpu.commit.committedInstType_0::SimdSha256Hash2            0      0.00%     74.83% # Class of committed instruction (Count)
system.cpu.commit.committedInstType_0::SimdShaSigma2            0      0.00%     74.83% # Class of committed instruction (Count)
system.cpu.commit.committedInstType_0::SimdShaSigma3            0      0.00%     74.83% # Class of committed instruction (Count)
system.cpu.commit.committedInstType_0::SimdPredAlu            0      0.00%     74.83% # Class of committed instruction (Count)
system.cpu.commit.committedInstType_0::MemRead    137864143     16.73%     91.56% # Class of committed instruction (Count)
system.cpu.commit.committedInstType_0::MemWrite     69398431      8.42%     99.98% # Class of committed instruction (Count)
system.cpu.commit.committedInstType_0::FloatMemRead        86560      0.01%     99.99% # Class of committed instruction (Count)
system.cpu.commit.committedInstType_0::FloatMemWrite        86443      0.01%    100.00% # Class of committed instruction (Count)
system.cpu.commit.committedInstType_0::IprAccess            0      0.00%    100.00% # Class of committed instruction (Count)
system.cpu.commit.committedInstType_0::InstPrefetch            0      0.00%    100.00% # Class of committed instruction (Count)
system.cpu.commit.committedInstType_0::total    824295576                       # Class of committed instruction (Count)
system.cpu.commit.commitEligibleSamples      33284923                       # number cycles where commit BW limit reached (Cycle)
system.cpu.dcache.demandHits::cpu.data      195616856                       # number of demand (read+write) hits (Count)
system.cpu.dcache.demandHits::total         195616856                       # number of demand (read+write) hits (Count)
system.cpu.dcache.overallHits::cpu.data     195616856                       # number of overall hits (Count)
system.cpu.dcache.overallHits::total        195616856                       # number of overall hits (Count)
system.cpu.dcache.demandMisses::cpu.data         2452                       # number of demand (read+write) misses (Count)
system.cpu.dcache.demandMisses::total            2452                       # number of demand (read+write) misses (Count)
system.cpu.dcache.overallMisses::cpu.data         2452                       # number of overall misses (Count)
system.cpu.dcache.overallMisses::total           2452                       # number of overall misses (Count)
system.cpu.dcache.demandMissLatency::cpu.data    166246500                       # number of demand (read+write) miss ticks (Tick)
system.cpu.dcache.demandMissLatency::total    166246500                       # number of demand (read+write) miss ticks (Tick)
system.cpu.dcache.overallMissLatency::cpu.data    166246500                       # number of overall miss ticks (Tick)
system.cpu.dcache.overallMissLatency::total    166246500                       # number of overall miss ticks (Tick)
system.cpu.dcache.demandAccesses::cpu.data    195619308                       # number of demand (read+write) accesses (Count)
system.cpu.dcache.demandAccesses::total     195619308                       # number of demand (read+write) accesses (Count)
system.cpu.dcache.overallAccesses::cpu.data    195619308                       # number of overall (read+write) accesses (Count)
system.cpu.dcache.overallAccesses::total    195619308                       # number of overall (read+write) accesses (Count)
system.cpu.dcache.demandMissRate::cpu.data     0.000013                       # miss rate for demand accesses (Ratio)
system.cpu.dcache.demandMissRate::total      0.000013                       # miss rate for demand accesses (Ratio)
system.cpu.dcache.overallMissRate::cpu.data     0.000013                       # miss rate for overall accesses (Ratio)
system.cpu.dcache.overallMissRate::total     0.000013                       # miss rate for overall accesses (Ratio)
system.cpu.dcache.demandAvgMissLatency::cpu.data 67800.367047                       # average overall miss latency in ticks ((Tick/Count))
system.cpu.dcache.demandAvgMissLatency::total 67800.367047                       # average overall miss latency in ticks ((Tick/Count))
system.cpu.dcache.overallAvgMissLatency::cpu.data 67800.367047                       # average overall miss latency ((Tick/Count))
system.cpu.dcache.overallAvgMissLatency::total 67800.367047                       # average overall miss latency ((Tick/Count))
system.cpu.dcache.blockedCycles::no_mshrs          241                       # number of cycles access was blocked (Cycle)
system.cpu.dcache.blockedCycles::no_targets            0                       # number of cycles access was blocked (Cycle)
system.cpu.dcache.blockedCauses::no_mshrs            5                       # number of times access was blocked (Count)
system.cpu.dcache.blockedCauses::no_targets            0                       # number of times access was blocked (Count)
system.cpu.dcache.avgBlocked::no_mshrs      48.200000                       # average number of cycles each access was blocked ((Cycle/Count))
system.cpu.dcache.avgBlocked::no_targets          nan                       # average number of cycles each access was blocked ((Cycle/Count))
system.cpu.dcache.writebacks::writebacks          248                       # number of writebacks (Count)
system.cpu.dcache.writebacks::total               248                       # number of writebacks (Count)
system.cpu.dcache.demandMshrHits::cpu.data          964                       # number of demand (read+write) MSHR hits (Count)
system.cpu.dcache.demandMshrHits::total           964                       # number of demand (read+write) MSHR hits (Count)
system.cpu.dcache.overallMshrHits::cpu.data          964                       # number of overall MSHR hits (Count)
system.cpu.dcache.overallMshrHits::total          964                       # number of overall MSHR hits (Count)
system.cpu.dcache.demandMshrMisses::cpu.data         1488                       # number of demand (read+write) MSHR misses (Count)
system.cpu.dcache.demandMshrMisses::total         1488                       # number of demand (read+write) MSHR misses (Count)
system.cpu.dcache.overallMshrMisses::cpu.data         1488                       # number of overall MSHR misses (Count)
system.cpu.dcache.overallMshrMisses::total         1488                       # number of overall MSHR misses (Count)
system.cpu.dcache.demandMshrMissLatency::cpu.data    104915000                       # number of demand (read+write) MSHR miss ticks (Tick)
system.cpu.dcache.demandMshrMissLatency::total    104915000                       # number of demand (read+write) MSHR miss ticks (Tick)
system.cpu.dcache.overallMshrMissLatency::cpu.data    104915000                       # number of overall MSHR miss ticks (Tick)
system.cpu.dcache.overallMshrMissLatency::total    104915000                       # number of overall MSHR miss ticks (Tick)
system.cpu.dcache.demandMshrMissRate::cpu.data     0.000008                       # mshr miss ratio for demand accesses (Ratio)
system.cpu.dcache.demandMshrMissRate::total     0.000008                       # mshr miss ratio for demand accesses (Ratio)
system.cpu.dcache.overallMshrMissRate::cpu.data     0.000008                       # mshr miss ratio for overall accesses (Ratio)
system.cpu.dcache.overallMshrMissRate::total     0.000008                       # mshr miss ratio for overall accesses (Ratio)
system.cpu.dcache.demandAvgMshrMissLatency::cpu.data 70507.392473                       # average overall mshr miss latency ((Tick/Count))
system.cpu.dcache.demandAvgMshrMissLatency::total 70507.392473                       # average overall mshr miss latency ((Tick/Count))
system.cpu.dcache.overallAvgMshrMissLatency::cpu.data 70507.392473                       # average overall mshr miss latency ((Tick/Count))
system.cpu.dcache.overallAvgMshrMissLatency::total 70507.392473                       # average overall mshr miss latency ((Tick/Count))
system.cpu.dcache.replacements                    582                       # number of replacements (Count)
system.cpu.dcache.LockedRMWReadReq.hits::cpu.data      8576824                       # number of LockedRMWReadReq hits (Count)
system.cpu.dcache.LockedRMWReadReq.hits::total      8576824                       # number of LockedRMWReadReq hits (Count)
system.cpu.dcache.LockedRMWReadReq.misses::cpu.data            2                       # number of LockedRMWReadReq misses (Count)
system.cpu.dcache.LockedRMWReadReq.misses::total            2                       # number of LockedRMWReadReq misses (Count)
system.cpu.dcache.LockedRMWReadReq.missLatency::cpu.data       147500                       # number of LockedRMWReadReq miss ticks (Tick)
system.cpu.dcache.LockedRMWReadReq.missLatency::total       147500                       # number of LockedRMWReadReq miss ticks (Tick)
system.cpu.dcache.LockedRMWReadReq.accesses::cpu.data      8576826                       # number of LockedRMWReadReq accesses(hits+misses) (Count)
system.cpu.dcache.LockedRMWReadReq.accesses::total      8576826                       # number of LockedRMWReadReq accesses(hits+misses) (Count)
system.cpu.dcache.LockedRMWReadReq.missRate::cpu.data     0.000000                       # miss rate for LockedRMWReadReq accesses (Ratio)
system.cpu.dcache.LockedRMWReadReq.missRate::total     0.000000                       # miss rate for LockedRMWReadReq accesses (Ratio)
system.cpu.dcache.LockedRMWReadReq.avgMissLatency::cpu.data        73750                       # average LockedRMWReadReq miss latency ((Tick/Count))
system.cpu.dcache.LockedRMWReadReq.avgMissLatency::total        73750                       # average LockedRMWReadReq miss latency ((Tick/Count))
system.cpu.dcache.LockedRMWReadReq.mshrMisses::cpu.data            2                       # number of LockedRMWReadReq MSHR misses (Count)
system.cpu.dcache.LockedRMWReadReq.mshrMisses::total            2                       # number of LockedRMWReadReq MSHR misses (Count)
system.cpu.dcache.LockedRMWReadReq.mshrMissLatency::cpu.data  32163389500                       # number of LockedRMWReadReq MSHR miss ticks (Tick)
system.cpu.dcache.LockedRMWReadReq.mshrMissLatency::total  32163389500                       # number of LockedRMWReadReq MSHR miss ticks (Tick)
system.cpu.dcache.LockedRMWReadReq.mshrMissRate::cpu.data     0.000000                       # mshr miss rate for LockedRMWReadReq accesses (Ratio)
system.cpu.dcache.LockedRMWReadReq.mshrMissRate::total     0.000000                       # mshr miss rate for LockedRMWReadReq accesses (Ratio)
system.cpu.dcache.LockedRMWReadReq.avgMshrMissLatency::cpu.data  16081694750                       # average LockedRMWReadReq mshr miss latency ((Tick/Count))
system.cpu.dcache.LockedRMWReadReq.avgMshrMissLatency::total  16081694750                       # average LockedRMWReadReq mshr miss latency ((Tick/Count))
system.cpu.dcache.LockedRMWWriteReq.hits::cpu.data      8576826                       # number of LockedRMWWriteReq hits (Count)
system.cpu.dcache.LockedRMWWriteReq.hits::total      8576826                       # number of LockedRMWWriteReq hits (Count)
system.cpu.dcache.LockedRMWWriteReq.accesses::cpu.data      8576826                       # number of LockedRMWWriteReq accesses(hits+misses) (Count)
system.cpu.dcache.LockedRMWWriteReq.accesses::total      8576826                       # number of LockedRMWWriteReq accesses(hits+misses) (Count)
system.cpu.dcache.ReadReq.hits::cpu.data    134709184                       # number of ReadReq hits (Count)
system.cpu.dcache.ReadReq.hits::total       134709184                       # number of ReadReq hits (Count)
system.cpu.dcache.ReadReq.misses::cpu.data         2075                       # number of ReadReq misses (Count)
system.cpu.dcache.ReadReq.misses::total          2075                       # number of ReadReq misses (Count)
system.cpu.dcache.ReadReq.missLatency::cpu.data    138574000                       # number of ReadReq miss ticks (Tick)
system.cpu.dcache.ReadReq.missLatency::total    138574000                       # number of ReadReq miss ticks (Tick)
system.cpu.dcache.ReadReq.accesses::cpu.data    134711259                       # number of ReadReq accesses(hits+misses) (Count)
system.cpu.dcache.ReadReq.accesses::total    134711259                       # number of ReadReq accesses(hits+misses) (Count)
system.cpu.dcache.ReadReq.missRate::cpu.data     0.000015                       # miss rate for ReadReq accesses (Ratio)
system.cpu.dcache.ReadReq.missRate::total     0.000015                       # miss rate for ReadReq accesses (Ratio)
system.cpu.dcache.ReadReq.avgMissLatency::cpu.data 66782.650602                       # average ReadReq miss latency ((Tick/Count))
system.cpu.dcache.ReadReq.avgMissLatency::total 66782.650602                       # average ReadReq miss latency ((Tick/Count))
system.cpu.dcache.ReadReq.mshrHits::cpu.data          963                       # number of ReadReq MSHR hits (Count)
system.cpu.dcache.ReadReq.mshrHits::total          963                       # number of ReadReq MSHR hits (Count)
system.cpu.dcache.ReadReq.mshrMisses::cpu.data         1112                       # number of ReadReq MSHR misses (Count)
system.cpu.dcache.ReadReq.mshrMisses::total         1112                       # number of ReadReq MSHR misses (Count)
system.cpu.dcache.ReadReq.mshrMissLatency::cpu.data     77688500                       # number of ReadReq MSHR miss ticks (Tick)
system.cpu.dcache.ReadReq.mshrMissLatency::total     77688500                       # number of ReadReq MSHR miss ticks (Tick)
system.cpu.dcache.ReadReq.mshrMissRate::cpu.data     0.000008                       # mshr miss rate for ReadReq accesses (Ratio)
system.cpu.dcache.ReadReq.mshrMissRate::total     0.000008                       # mshr miss rate for ReadReq accesses (Ratio)
system.cpu.dcache.ReadReq.avgMshrMissLatency::cpu.data 69863.758993                       # average ReadReq mshr miss latency ((Tick/Count))
system.cpu.dcache.ReadReq.avgMshrMissLatency::total 69863.758993                       # average ReadReq mshr miss latency ((Tick/Count))
system.cpu.dcache.WriteReq.hits::cpu.data     60907672                       # number of WriteReq hits (Count)
system.cpu.dcache.WriteReq.hits::total       60907672                       # number of WriteReq hits (Count)
system.cpu.dcache.WriteReq.misses::cpu.data          377                       # number of WriteReq misses (Count)
system.cpu.dcache.WriteReq.misses::total          377                       # number of WriteReq misses (Count)
system.cpu.dcache.WriteReq.missLatency::cpu.data     27672500                       # number of WriteReq miss ticks (Tick)
system.cpu.dcache.WriteReq.missLatency::total     27672500                       # number of WriteReq miss ticks (Tick)
system.cpu.dcache.WriteReq.accesses::cpu.data     60908049                       # number of WriteReq accesses(hits+misses) (Count)
system.cpu.dcache.WriteReq.accesses::total     60908049                       # number of WriteReq accesses(hits+misses) (Count)
system.cpu.dcache.WriteReq.missRate::cpu.data     0.000006                       # miss rate for WriteReq accesses (Ratio)
system.cpu.dcache.WriteReq.missRate::total     0.000006                       # miss rate for WriteReq accesses (Ratio)
system.cpu.dcache.WriteReq.avgMissLatency::cpu.data 73401.856764                       # average WriteReq miss latency ((Tick/Count))
system.cpu.dcache.WriteReq.avgMissLatency::total 73401.856764                       # average WriteReq miss latency ((Tick/Count))
system.cpu.dcache.WriteReq.mshrHits::cpu.data            1                       # number of WriteReq MSHR hits (Count)
system.cpu.dcache.WriteReq.mshrHits::total            1                       # number of WriteReq MSHR hits (Count)
system.cpu.dcache.WriteReq.mshrMisses::cpu.data          376                       # number of WriteReq MSHR misses (Count)
system.cpu.dcache.WriteReq.mshrMisses::total          376                       # number of WriteReq MSHR misses (Count)
system.cpu.dcache.WriteReq.mshrMissLatency::cpu.data     27226500                       # number of WriteReq MSHR miss ticks (Tick)
system.cpu.dcache.WriteReq.mshrMissLatency::total     27226500                       # number of WriteReq MSHR miss ticks (Tick)
system.cpu.dcache.WriteReq.mshrMissRate::cpu.data     0.000006                       # mshr miss rate for WriteReq accesses (Ratio)
system.cpu.dcache.WriteReq.mshrMissRate::total     0.000006                       # mshr miss rate for WriteReq accesses (Ratio)
system.cpu.dcache.WriteReq.avgMshrMissLatency::cpu.data 72410.904255                       # average WriteReq mshr miss latency ((Tick/Count))
system.cpu.dcache.WriteReq.avgMshrMissLatency::total 72410.904255                       # average WriteReq mshr miss latency ((Tick/Count))
system.cpu.dcache.power_state.pwrStateResidencyTicks::UNDEFINED 305454236000                       # Cumulative time (in ticks) in various power states (Tick)
system.cpu.dcache.tags.tagsInUse           905.800556                       # Average ticks per tags in use ((Tick/Count))
system.cpu.dcache.tags.totalRefs            212771996                       # Total number of references to valid blocks. (Count)
system.cpu.dcache.tags.sampledRefs               1490                       # Sample count of references to valid blocks. (Count)
system.cpu.dcache.tags.avgRefs           142799.997315                       # Average number of references to valid blocks. ((Count/Count))
system.cpu.dcache.tags.warmupTick              168000                       # The tick when the warmup percentage was hit. (Tick)
system.cpu.dcache.tags.occupancies::cpu.data   905.800556                       # Average occupied blocks per tick, per requestor ((Count/Tick))
system.cpu.dcache.tags.avgOccs::cpu.data     0.884571                       # Average percentage of cache occupancy ((Ratio/Tick))
system.cpu.dcache.tags.avgOccs::total        0.884571                       # Average percentage of cache occupancy ((Ratio/Tick))
system.cpu.dcache.tags.occupanciesTaskId::1024          908                       # Occupied blocks per task id (Count)
system.cpu.dcache.tags.ageTaskId_1024::0           22                       # Occupied blocks per task id, per block age (Count)
system.cpu.dcache.tags.ageTaskId_1024::4          886                       # Occupied blocks per task id, per block age (Count)
system.cpu.dcache.tags.ratioOccsTaskId::1024     0.886719                       # Ratio of occupied blocks and all blocks, per task id (Ratio)
system.cpu.dcache.tags.tagAccesses          425547410                       # Number of tag accesses (Count)
system.cpu.dcache.tags.dataAccesses         425547410                       # Number of data accesses (Count)
system.cpu.dcache.tags.power_state.pwrStateResidencyTicks::UNDEFINED 305454236000                       # Cumulative time (in ticks) in various power states (Tick)
system.cpu.decode.idleCycles                 56796411                       # Number of cycles decode is idle (Cycle)
system.cpu.decode.blockedCycles             415142642                       # Number of cycles decode is blocked (Cycle)
system.cpu.decode.runCycles                  48166731                       # Number of cycles decode is running (Cycle)
system.cpu.decode.unblockCycles              84298898                       # Number of cycles decode is unblocking (Cycle)
system.cpu.decode.squashCycles                6188118                       # Number of cycles decode is squashing (Cycle)
system.cpu.decode.branchResolved             52450817                       # Number of times decode resolved a branch (Count)
system.cpu.decode.branchMispred                  1247                       # Number of times decode detected a branch misprediction (Count)
system.cpu.decode.decodedInsts             1004503415                       # Number of instructions handled by decode (Count)
system.cpu.decode.squashedInsts                  2823                       # Number of squashed instructions handled by decode (Count)
system.cpu.fetch.icacheStallCycles          104820982                       # Number of cycles fetch is stalled on an Icache miss (Cycle)
system.cpu.fetch.insts                      592934947                       # Number of instructions fetch has processed (Count)
system.cpu.fetch.branches                   108585535                       # Number of branches that fetch encountered (Count)
system.cpu.fetch.predictedBranches           74254917                       # Number of branches that fetch has predicted taken (Count)
system.cpu.fetch.cycles                     499579968                       # Number of cycles fetch has run and was not squashing or blocked (Cycle)
system.cpu.fetch.squashCycles                12378422                       # Number of cycles fetch has spent squashing (Cycle)
system.cpu.fetch.miscStallCycles                  355                       # Number of cycles fetch has spent waiting on interrupts, or bad addresses, or out of MSHRs (Cycle)
system.cpu.fetch.pendingTrapStallCycles          2280                       # Number of stall cycles due to pending traps (Cycle)
system.cpu.fetch.icacheWaitRetryStallCycles            4                       # Number of stall cycles due to full MSHR (Cycle)
system.cpu.fetch.cacheLines                  94580300                       # Number of cache lines fetched (Count)
system.cpu.fetch.icacheSquashes               2066799                       # Number of outstanding Icache misses that were squashed (Count)
system.cpu.fetch.nisnDist::samples          610592800                       # Number of instructions fetched each cycle (Total) (Count)
system.cpu.fetch.nisnDist::mean              1.889982                       # Number of instructions fetched each cycle (Total) (Count)
system.cpu.fetch.nisnDist::stdev             3.064052                       # Number of instructions fetched each cycle (Total) (Count)
system.cpu.fetch.nisnDist::underflows               0      0.00%      0.00% # Number of instructions fetched each cycle (Total) (Count)
system.cpu.fetch.nisnDist::0                420509194     68.87%     68.87% # Number of instructions fetched each cycle (Total) (Count)
system.cpu.fetch.nisnDist::1                  7400258      1.21%     70.08% # Number of instructions fetched each cycle (Total) (Count)
system.cpu.fetch.nisnDist::2                  9844423      1.61%     71.69% # Number of instructions fetched each cycle (Total) (Count)
system.cpu.fetch.nisnDist::3                 17816382      2.92%     74.61% # Number of instructions fetched each cycle (Total) (Count)
system.cpu.fetch.nisnDist::4                  7424690      1.22%     75.83% # Number of instructions fetched each cycle (Total) (Count)
system.cpu.fetch.nisnDist::5                 22309907      3.65%     79.48% # Number of instructions fetched each cycle (Total) (Count)
system.cpu.fetch.nisnDist::6                 31332952      5.13%     84.61% # Number of instructions fetched each cycle (Total) (Count)
system.cpu.fetch.nisnDist::7                  7414540      1.21%     85.83% # Number of instructions fetched each cycle (Total) (Count)
system.cpu.fetch.nisnDist::8                 86540454     14.17%    100.00% # Number of instructions fetched each cycle (Total) (Count)
system.cpu.fetch.nisnDist::overflows                0      0.00%    100.00% # Number of instructions fetched each cycle (Total) (Count)
system.cpu.fetch.nisnDist::min_value                0                       # Number of instructions fetched each cycle (Total) (Count)
system.cpu.fetch.nisnDist::max_value                8                       # Number of instructions fetched each cycle (Total) (Count)
system.cpu.fetch.nisnDist::total            610592800                       # Number of instructions fetched each cycle (Total) (Count)
system.cpu.fetch.branchRate                  0.177744                       # Number of branch fetches per cycle (Ratio)
system.cpu.fetch.rate                        0.970579                       # Number of inst fetches per cycle ((Count/Cycle))
system.cpu.icache.demandHits::cpu.inst       94250660                       # number of demand (read+write) hits (Count)
system.cpu.icache.demandHits::total          94250660                       # number of demand (read+write) hits (Count)
system.cpu.icache.overallHits::cpu.inst      94250660                       # number of overall hits (Count)
system.cpu.icache.overallHits::total         94250660                       # number of overall hits (Count)
system.cpu.icache.demandMisses::cpu.inst       329638                       # number of demand (read+write) misses (Count)
system.cpu.icache.demandMisses::total          329638                       # number of demand (read+write) misses (Count)
system.cpu.icache.overallMisses::cpu.inst       329638                       # number of overall misses (Count)
system.cpu.icache.overallMisses::total         329638                       # number of overall misses (Count)
system.cpu.icache.demandMissLatency::cpu.inst   4239033000                       # number of demand (read+write) miss ticks (Tick)
system.cpu.icache.demandMissLatency::total   4239033000                       # number of demand (read+write) miss ticks (Tick)
system.cpu.icache.overallMissLatency::cpu.inst   4239033000                       # number of overall miss ticks (Tick)
system.cpu.icache.overallMissLatency::total   4239033000                       # number of overall miss ticks (Tick)
system.cpu.icache.demandAccesses::cpu.inst     94580298                       # number of demand (read+write) accesses (Count)
system.cpu.icache.demandAccesses::total      94580298                       # number of demand (read+write) accesses (Count)
system.cpu.icache.overallAccesses::cpu.inst     94580298                       # number of overall (read+write) accesses (Count)
system.cpu.icache.overallAccesses::total     94580298                       # number of overall (read+write) accesses (Count)
system.cpu.icache.demandMissRate::cpu.inst     0.003485                       # miss rate for demand accesses (Ratio)
system.cpu.icache.demandMissRate::total      0.003485                       # miss rate for demand accesses (Ratio)
system.cpu.icache.overallMissRate::cpu.inst     0.003485                       # miss rate for overall accesses (Ratio)
system.cpu.icache.overallMissRate::total     0.003485                       # miss rate for overall accesses (Ratio)
system.cpu.icache.demandAvgMissLatency::cpu.inst 12859.661204                       # average overall miss latency in ticks ((Tick/Count))
system.cpu.icache.demandAvgMissLatency::total 12859.661204                       # average overall miss latency in ticks ((Tick/Count))
system.cpu.icache.overallAvgMissLatency::cpu.inst 12859.661204                       # average overall miss latency ((Tick/Count))
system.cpu.icache.overallAvgMissLatency::total 12859.661204                       # average overall miss latency ((Tick/Count))
system.cpu.icache.blockedCycles::no_mshrs          477                       # number of cycles access was blocked (Cycle)
system.cpu.icache.blockedCycles::no_targets            0                       # number of cycles access was blocked (Cycle)
system.cpu.icache.blockedCauses::no_mshrs           10                       # number of times access was blocked (Count)
system.cpu.icache.blockedCauses::no_targets            0                       # number of times access was blocked (Count)
system.cpu.icache.avgBlocked::no_mshrs      47.700000                       # average number of cycles each access was blocked ((Cycle/Count))
system.cpu.icache.avgBlocked::no_targets          nan                       # average number of cycles each access was blocked ((Cycle/Count))
system.cpu.icache.demandMshrHits::cpu.inst        14912                       # number of demand (read+write) MSHR hits (Count)
system.cpu.icache.demandMshrHits::total         14912                       # number of demand (read+write) MSHR hits (Count)
system.cpu.icache.overallMshrHits::cpu.inst        14912                       # number of overall MSHR hits (Count)
system.cpu.icache.overallMshrHits::total        14912                       # number of overall MSHR hits (Count)
system.cpu.icache.demandMshrMisses::cpu.inst       314726                       # number of demand (read+write) MSHR misses (Count)
system.cpu.icache.demandMshrMisses::total       314726                       # number of demand (read+write) MSHR misses (Count)
system.cpu.icache.overallMshrMisses::cpu.inst       314726                       # number of overall MSHR misses (Count)
system.cpu.icache.overallMshrMisses::total       314726                       # number of overall MSHR misses (Count)
system.cpu.icache.demandMshrMissLatency::cpu.inst   3862192500                       # number of demand (read+write) MSHR miss ticks (Tick)
system.cpu.icache.demandMshrMissLatency::total   3862192500                       # number of demand (read+write) MSHR miss ticks (Tick)
system.cpu.icache.overallMshrMissLatency::cpu.inst   3862192500                       # number of overall MSHR miss ticks (Tick)
system.cpu.icache.overallMshrMissLatency::total   3862192500                       # number of overall MSHR miss ticks (Tick)
system.cpu.icache.demandMshrMissRate::cpu.inst     0.003328                       # mshr miss ratio for demand accesses (Ratio)
system.cpu.icache.demandMshrMissRate::total     0.003328                       # mshr miss ratio for demand accesses (Ratio)
system.cpu.icache.overallMshrMissRate::cpu.inst     0.003328                       # mshr miss ratio for overall accesses (Ratio)
system.cpu.icache.overallMshrMissRate::total     0.003328                       # mshr miss ratio for overall accesses (Ratio)
system.cpu.icache.demandAvgMshrMissLatency::cpu.inst 12271.602918                       # average overall mshr miss latency ((Tick/Count))
system.cpu.icache.demandAvgMshrMissLatency::total 12271.602918                       # average overall mshr miss latency ((Tick/Count))
system.cpu.icache.overallAvgMshrMissLatency::cpu.inst 12271.602918                       # average overall mshr miss latency ((Tick/Count))
system.cpu.icache.overallAvgMshrMissLatency::total 12271.602918                       # average overall mshr miss latency ((Tick/Count))
system.cpu.icache.replacements                 314470                       # number of replacements (Count)
system.cpu.icache.ReadReq.hits::cpu.inst     94250660                       # number of ReadReq hits (Count)
system.cpu.icache.ReadReq.hits::total        94250660                       # number of ReadReq hits (Count)
system.cpu.icache.ReadReq.misses::cpu.inst       329638                       # number of ReadReq misses (Count)
system.cpu.icache.ReadReq.misses::total        329638                       # number of ReadReq misses (Count)
system.cpu.icache.ReadReq.missLatency::cpu.inst   4239033000                       # number of ReadReq miss ticks (Tick)
system.cpu.icache.ReadReq.missLatency::total   4239033000                       # number of ReadReq miss ticks (Tick)
system.cpu.icache.ReadReq.accesses::cpu.inst     94580298                       # number of ReadReq accesses(hits+misses) (Count)
system.cpu.icache.ReadReq.accesses::total     94580298                       # number of ReadReq accesses(hits+misses) (Count)
system.cpu.icache.ReadReq.missRate::cpu.inst     0.003485                       # miss rate for ReadReq accesses (Ratio)
system.cpu.icache.ReadReq.missRate::total     0.003485                       # miss rate for ReadReq accesses (Ratio)
system.cpu.icache.ReadReq.avgMissLatency::cpu.inst 12859.661204                       # average ReadReq miss latency ((Tick/Count))
system.cpu.icache.ReadReq.avgMissLatency::total 12859.661204                       # average ReadReq miss latency ((Tick/Count))
system.cpu.icache.ReadReq.mshrHits::cpu.inst        14912                       # number of ReadReq MSHR hits (Count)
system.cpu.icache.ReadReq.mshrHits::total        14912                       # number of ReadReq MSHR hits (Count)
system.cpu.icache.ReadReq.mshrMisses::cpu.inst       314726                       # number of ReadReq MSHR misses (Count)
system.cpu.icache.ReadReq.mshrMisses::total       314726                       # number of ReadReq MSHR misses (Count)
system.cpu.icache.ReadReq.mshrMissLatency::cpu.inst   3862192500                       # number of ReadReq MSHR miss ticks (Tick)
system.cpu.icache.ReadReq.mshrMissLatency::total   3862192500                       # number of ReadReq MSHR miss ticks (Tick)
system.cpu.icache.ReadReq.mshrMissRate::cpu.inst     0.003328                       # mshr miss rate for ReadReq accesses (Ratio)
system.cpu.icache.ReadReq.mshrMissRate::total     0.003328                       # mshr miss rate for ReadReq accesses (Ratio)
system.cpu.icache.ReadReq.avgMshrMissLatency::cpu.inst 12271.602918                       # average ReadReq mshr miss latency ((Tick/Count))
system.cpu.icache.ReadReq.avgMshrMissLatency::total 12271.602918                       # average ReadReq mshr miss latency ((Tick/Count))
system.cpu.icache.power_state.pwrStateResidencyTicks::UNDEFINED 305454236000                       # Cumulative time (in ticks) in various power states (Tick)
system.cpu.icache.tags.tagsInUse           255.990321                       # Average ticks per tags in use ((Tick/Count))
system.cpu.icache.tags.totalRefs             94565386                       # Total number of references to valid blocks. (Count)
system.cpu.icache.tags.sampledRefs             314726                       # Sample count of references to valid blocks. (Count)
system.cpu.icache.tags.avgRefs             300.468935                       # Average number of references to valid blocks. ((Count/Count))
system.cpu.icache.tags.warmupTick               82000                       # The tick when the warmup percentage was hit. (Tick)
system.cpu.icache.tags.occupancies::cpu.inst   255.990321                       # Average occupied blocks per tick, per requestor ((Count/Tick))
system.cpu.icache.tags.avgOccs::cpu.inst     0.999962                       # Average percentage of cache occupancy ((Ratio/Tick))
system.cpu.icache.tags.avgOccs::total        0.999962                       # Average percentage of cache occupancy ((Ratio/Tick))
system.cpu.icache.tags.occupanciesTaskId::1024          256                       # Occupied blocks per task id (Count)
system.cpu.icache.tags.ageTaskId_1024::0          130                       # Occupied blocks per task id, per block age (Count)
system.cpu.icache.tags.ageTaskId_1024::1            1                       # Occupied blocks per task id, per block age (Count)
system.cpu.icache.tags.ageTaskId_1024::4          125                       # Occupied blocks per task id, per block age (Count)
system.cpu.icache.tags.ratioOccsTaskId::1024            1                       # Ratio of occupied blocks and all blocks, per task id (Ratio)
system.cpu.icache.tags.tagAccesses          189475322                       # Number of tag accesses (Count)
system.cpu.icache.tags.dataAccesses         189475322                       # Number of data accesses (Count)
system.cpu.icache.tags.power_state.pwrStateResidencyTicks::UNDEFINED 305454236000                       # Cumulative time (in ticks) in various power states (Tick)
system.cpu.iew.idleCycles                           0                       # Number of cycles IEW is idle (Cycle)
system.cpu.iew.squashCycles                   6188118                       # Number of cycles IEW is squashing (Cycle)
system.cpu.iew.blockCycles                   87274748                       # Number of cycles IEW is blocking (Cycle)
system.cpu.iew.unblockCycles                 11855506                       # Number of cycles IEW is unblocking (Cycle)
system.cpu.iew.dispatchedInsts              936595510                       # Number of instructions dispatched to IQ (Count)
system.cpu.iew.dispSquashedInsts                31744                       # Number of squashed instructions skipped by dispatch (Count)
system.cpu.iew.dispLoadInsts                151592750                       # Number of dispatched load instructions (Count)
system.cpu.iew.dispStoreInsts                75386931                       # Number of dispatched store instructions (Count)
system.cpu.iew.dispNonSpecInsts               8576875                       # Number of dispatched non-speculative instructions (Count)
system.cpu.iew.iqFullEvents                   6664345                       # Number of times the IQ has become full, causing a stall (Count)
system.cpu.iew.lsqFullEvents                     3151                       # Number of times the LSQ has become full, causing a stall (Count)
system.cpu.iew.memOrderViolationEvents           1403                       # Number of memory order violations (Count)
system.cpu.iew.predictedTakenIncorrect        4457968                       # Number of branches that were predicted taken incorrectly (Count)
system.cpu.iew.predictedNotTakenIncorrect      2788099                       # Number of branches that were predicted not taken incorrectly (Count)
system.cpu.iew.branchMispredicts              7246067                       # Number of branch mispredicts detected at execute (Count)
system.cpu.iew.instsToCommit                899703842                       # Cumulative count of insts sent to commit (Count)
system.cpu.iew.writebackCount               897837468                       # Cumulative count of insts written-back (Count)
system.cpu.iew.producerInst                 556301518                       # Number of instructions producing a value (Count)
system.cpu.iew.consumerInst                 799084332                       # Number of instructions consuming a value (Count)
system.cpu.iew.wbRate                        1.469676                       # Insts written-back per cycle ((Count/Cycle))
system.cpu.iew.wbFanout                      0.696174                       # Average fanout of values written-back ((Count/Count))
system.cpu.interrupts.clk_domain.clock           8000                       # Clock period in ticks (Tick)
system.cpu.lsq0.forwLoads                     4438482                       # Number of loads that had data forwarded from stores (Count)
system.cpu.lsq0.squashedLoads                13642047                       # Number of loads squashed (Count)
system.cpu.lsq0.ignoredResponses                94535                       # Number of memory responses ignored because the instruction is squashed (Count)
system.cpu.lsq0.memOrderViolation                1403                       # Number of memory ordering violations (Count)
system.cpu.lsq0.squashedStores                5902056                       # Number of stores squashed (Count)
system.cpu.lsq0.rescheduledLoads                14199                       # Number of loads that were rescheduled (Count)
system.cpu.lsq0.blockedByCache                      4                       # Number of times an access to memory failed due to the cache being blocked (Count)
system.cpu.lsq0.loadToUse::samples          137950703                       # Distribution of cycle latency between the first time a load is issued and its completion (Unspecified)
system.cpu.lsq0.loadToUse::mean              3.244724                       # Distribution of cycle latency between the first time a load is issued and its completion (Unspecified)
system.cpu.lsq0.loadToUse::stdev             0.703815                       # Distribution of cycle latency between the first time a load is issued and its completion (Unspecified)
system.cpu.lsq0.loadToUse::0-9              137949058    100.00%    100.00% # Distribution of cycle latency between the first time a load is issued and its completion (Unspecified)
system.cpu.lsq0.loadToUse::10-19                   46      0.00%    100.00% # Distribution of cycle latency between the first time a load is issued and its completion (Unspecified)
system.cpu.lsq0.loadToUse::20-29                  160      0.00%    100.00% # Distribution of cycle latency between the first time a load is issued and its completion (Unspecified)
system.cpu.lsq0.loadToUse::30-39                    8      0.00%    100.00% # Distribution of cycle latency between the first time a load is issued and its completion (Unspecified)
system.cpu.lsq0.loadToUse::40-49                    6      0.00%    100.00% # Distribution of cycle latency between the first time a load is issued and its completion (Unspecified)
system.cpu.lsq0.loadToUse::50-59                    9      0.00%    100.00% # Distribution of cycle latency between the first time a load is issued and its completion (Unspecified)
system.cpu.lsq0.loadToUse::60-69                    6      0.00%    100.00% # Distribution of cycle latency between the first time a load is issued and its completion (Unspecified)
system.cpu.lsq0.loadToUse::70-79                    6      0.00%    100.00% # Distribution of cycle latency between the first time a load is issued and its completion (Unspecified)
system.cpu.lsq0.loadToUse::80-89                    7      0.00%    100.00% # Distribution of cycle latency between the first time a load is issued and its completion (Unspecified)
system.cpu.lsq0.loadToUse::90-99                   17      0.00%    100.00% # Distribution of cycle latency between the first time a load is issued and its completion (Unspecified)
system.cpu.lsq0.loadToUse::100-109                 16      0.00%    100.00% # Distribution of cycle latency between the first time a load is issued and its completion (Unspecified)
system.cpu.lsq0.loadToUse::110-119                 31      0.00%    100.00% # Distribution of cycle latency between the first time a load is issued and its completion (Unspecified)
system.cpu.lsq0.loadToUse::120-129                 67      0.00%    100.00% # Distribution of cycle latency between the first time a load is issued and its completion (Unspecified)
system.cpu.lsq0.loadToUse::130-139                752      0.00%    100.00% # Distribution of cycle latency between the first time a load is issued and its completion (Unspecified)
[...]
system.mem_ctrl.requestorReadAvgLat::cpu.inst     25914.88                       # Per-requestor read average memory access latency ((Tick/Count))
system.mem_ctrl.requestorReadAvgLat::cpu.data     28465.85                       # Per-requestor read average memory access latency ((Tick/Count))
system.mem_ctrl.dram.bytesRead::cpu.inst        89472                       # Number of bytes read from this memory (Byte)
system.mem_ctrl.dram.bytesRead::cpu.data        87616                       # Number of bytes read from this memory (Byte)
system.mem_ctrl.dram.bytesRead::total          177088                       # Number of bytes read from this memory (Byte)
system.mem_ctrl.dram.bytesInstRead::cpu.inst        89472                       # Number of instructions bytes read from this memory (Byte)
system.mem_ctrl.dram.bytesInstRead::total        89472                       # Number of instructions bytes read from this memory (Byte)
system.mem_ctrl.dram.numReads::cpu.inst          1398                       # Number of read requests responded to by this memory (Count)
system.mem_ctrl.dram.numReads::cpu.data          1369                       # Number of read requests responded to by this memory (Count)
system.mem_ctrl.dram.numReads::total             2767                       # Number of read requests responded to by this memory (Count)
system.mem_ctrl.dram.bwRead::cpu.inst          292915                       # Total read bandwidth from this memory ((Byte/Second))
system.mem_ctrl.dram.bwRead::cpu.data          286838                       # Total read bandwidth from this memory ((Byte/Second))
system.mem_ctrl.dram.bwRead::total             579753                       # Total read bandwidth from this memory ((Byte/Second))
system.mem_ctrl.dram.bwInstRead::cpu.inst       292915                       # Instruction read bandwidth from this memory ((Byte/Second))
system.mem_ctrl.dram.bwInstRead::total         292915                       # Instruction read bandwidth from this memory ((Byte/Second))
system.mem_ctrl.dram.bwTotal::cpu.inst         292915                       # Total bandwidth to/from this memory ((Byte/Second))
system.mem_ctrl.dram.bwTotal::cpu.data         286838                       # Total bandwidth to/from this memory ((Byte/Second))
system.mem_ctrl.dram.bwTotal::total            579753                       # Total bandwidth to/from this memory ((Byte/Second))
system.mem_ctrl.dram.readBursts                  2767                       # Number of DRAM read bursts (Count)
system.mem_ctrl.dram.writeBursts                    0                       # Number of DRAM write bursts (Count)
system.mem_ctrl.dram.perBankRdBursts::0           147                       # Per bank write bursts (Count)
system.mem_ctrl.dram.perBankRdBursts::1           160                       # Per bank write bursts (Count)
system.mem_ctrl.dram.perBankRdBursts::2           172                       # Per bank write bursts (Count)
system.mem_ctrl.dram.perBankRdBursts::3           121                       # Per bank write bursts (Count)
system.mem_ctrl.dram.perBankRdBursts::4           167                       # Per bank write bursts (Count)
system.mem_ctrl.dram.perBankRdBursts::5           167                       # Per bank write bursts (Count)
system.mem_ctrl.dram.perBankRdBursts::6           231                       # Per bank write bursts (Count)
system.mem_ctrl.dram.perBankRdBursts::7           228                       # Per bank write bursts (Count)
system.mem_ctrl.dram.perBankRdBursts::8           144                       # Per bank write bursts (Count)
system.mem_ctrl.dram.perBankRdBursts::9           134                       # Per bank write bursts (Count)
system.mem_ctrl.dram.perBankRdBursts::10          145                       # Per bank write bursts (Count)
system.mem_ctrl.dram.perBankRdBursts::11          245                       # Per bank write bursts (Count)
system.mem_ctrl.dram.perBankRdBursts::12          214                       # Per bank write bursts (Count)
system.mem_ctrl.dram.perBankRdBursts::13          247                       # Per bank write bursts (Count)
system.mem_ctrl.dram.perBankRdBursts::14           93                       # Per bank write bursts (Count)
system.mem_ctrl.dram.perBankRdBursts::15          152                       # Per bank write bursts (Count)
system.mem_ctrl.dram.perBankWrBursts::0             0                       # Per bank write bursts (Count)
system.mem_ctrl.dram.perBankWrBursts::1             0                       # Per bank write bursts (Count)
system.mem_ctrl.dram.perBankWrBursts::2             0                       # Per bank write bursts (Count)
system.mem_ctrl.dram.perBankWrBursts::3             0                       # Per bank write bursts (Count)
system.mem_ctrl.dram.perBankWrBursts::4             0                       # Per bank write bursts (Count)
system.mem_ctrl.dram.perBankWrBursts::5             0                       # Per bank write bursts (Count)
system.mem_ctrl.dram.perBankWrBursts::6             0                       # Per bank write bursts (Count)
system.mem_ctrl.dram.perBankWrBursts::7             0                       # Per bank write bursts (Count)
system.mem_ctrl.dram.perBankWrBursts::8             0                       # Per bank write bursts (Count)
system.mem_ctrl.dram.perBankWrBursts::9             0                       # Per bank write bursts (Count)
system.mem_ctrl.dram.perBankWrBursts::10            0                       # Per bank write bursts (Count)
system.mem_ctrl.dram.perBankWrBursts::11            0                       # Per bank write bursts (Count)
system.mem_ctrl.dram.perBankWrBursts::12            0                       # Per bank write bursts (Count)
system.mem_ctrl.dram.perBankWrBursts::13            0                       # Per bank write bursts (Count)
system.mem_ctrl.dram.perBankWrBursts::14            0                       # Per bank write bursts (Count)
system.mem_ctrl.dram.perBankWrBursts::15            0                       # Per bank write bursts (Count)
system.mem_ctrl.dram.totQLat                 23317500                       # Total ticks spent queuing (Tick)
system.mem_ctrl.dram.totBusLat               13835000                       # Total ticks spent in databus transfers (Tick)
system.mem_ctrl.dram.totMemAccLat            75198750                       # Total ticks spent from burst creation until serviced by the DRAM (Tick)
system.mem_ctrl.dram.avgQLat                  8427.00                       # Average queueing delay per DRAM burst ((Tick/Count))
system.mem_ctrl.dram.avgBusLat                5000.00                       # Average bus latency per DRAM burst ((Tick/Count))
system.mem_ctrl.dram.avgMemAccLat            27177.00                       # Average memory access latency per DRAM burst ((Tick/Count))
system.mem_ctrl.dram.readRowHits                 2144                       # Number of row buffer hits during reads (Count)
system.mem_ctrl.dram.writeRowHits                   0                       # Number of row buffer hits during writes (Count)
system.mem_ctrl.dram.readRowHitRate             77.48                       # Row buffer hit rate for reads (Ratio)
system.mem_ctrl.dram.writeRowHitRate              nan                       # Row buffer hit rate for writes (Ratio)
system.mem_ctrl.dram.bytesPerActivate::samples          612                       # Bytes accessed per row activation (Byte)
system.mem_ctrl.dram.bytesPerActivate::mean   285.699346                       # Bytes accessed per row activation (Byte)
system.mem_ctrl.dram.bytesPerActivate::gmean   176.635511                       # Bytes accessed per row activation (Byte)
system.mem_ctrl.dram.bytesPerActivate::stdev   297.834873                       # Bytes accessed per row activation (Byte)
system.mem_ctrl.dram.bytesPerActivate::0-127          220     35.95%     35.95% # Bytes accessed per row activation (Byte)
system.mem_ctrl.dram.bytesPerActivate::128-255          157     25.65%     61.60% # Bytes accessed per row activation (Byte)
system.mem_ctrl.dram.bytesPerActivate::256-383           78     12.75%     74.35% # Bytes accessed per row activation (Byte)
system.mem_ctrl.dram.bytesPerActivate::384-511           35      5.72%     80.07% # Bytes accessed per row activation (Byte)
system.mem_ctrl.dram.bytesPerActivate::512-639           25      4.08%     84.15% # Bytes accessed per row activation (Byte)
system.mem_ctrl.dram.bytesPerActivate::640-767           28      4.58%     88.73% # Bytes accessed per row activation (Byte)
system.mem_ctrl.dram.bytesPerActivate::768-895            8      1.31%     90.03% # Bytes accessed per row activation (Byte)
system.mem_ctrl.dram.bytesPerActivate::896-1023           10      1.63%     91.67% # Bytes accessed per row activation (Byte)
system.mem_ctrl.dram.bytesPerActivate::1024-1151           51      8.33%    100.00% # Bytes accessed per row activation (Byte)
system.mem_ctrl.dram.bytesPerActivate::total          612                       # Bytes accessed per row activation (Byte)
system.mem_ctrl.dram.bytesRead                 177088                       # Total bytes read (Byte)
system.mem_ctrl.dram.bytesWritten                   0                       # Total bytes written (Byte)
system.mem_ctrl.dram.avgRdBW                 0.579753                       # Average DRAM read bandwidth in MiBytes/s ((Byte/Second))
system.mem_ctrl.dram.avgWrBW                        0                       # Average DRAM write bandwidth in MiBytes/s ((Byte/Second))
system.mem_ctrl.dram.peakBW                  12800.00                       # Theoretical peak bandwidth in MiByte/s ((Byte/Second))
system.mem_ctrl.dram.busUtil                     0.00                       # Data bus utilization in percentage (Ratio)
system.mem_ctrl.dram.busUtilRead                 0.00                       # Data bus utilization in percentage for reads (Ratio)
system.mem_ctrl.dram.busUtilWrite                0.00                       # Data bus utilization in percentage for writes (Ratio)
system.mem_ctrl.dram.pageHitRate                77.48                       # Row buffer hit rate, read and write combined (Ratio)
system.mem_ctrl.dram.power_state.pwrStateResidencyTicks::UNDEFINED 305454236000                       # Cumulative time (in ticks) in various power states (Tick)
system.mem_ctrl.dram.rank0.actEnergy          2513280                       # Energy for activate commands per rank (pJ) (Joule)
system.mem_ctrl.dram.rank0.preEnergy          1309275                       # Energy for precharge commands per rank (pJ) (Joule)
system.mem_ctrl.dram.rank0.readEnergy         9946020                       # Energy for read commands per rank (pJ) (Joule)
system.mem_ctrl.dram.rank0.writeEnergy              0                       # Energy for write commands per rank (pJ) (Joule)
system.mem_ctrl.dram.rank0.refreshEnergy 24111712560.000004                       # Energy for refresh commands per rank (pJ) (Joule)
system.mem_ctrl.dram.rank0.actBackEnergy   4493237040                       # Energy for active background per rank (pJ) (Joule)
system.mem_ctrl.dram.rank0.preBackEnergy 113510648160                       # Energy for precharge background per rank (pJ) (Joule)
system.mem_ctrl.dram.rank0.actPowerDownEnergy            0                       # Energy for active power-down per rank (pJ) (Joule)
system.mem_ctrl.dram.rank0.prePowerDownEnergy            0                       # Energy for precharge power-down per rank (pJ) (Joule)
system.mem_ctrl.dram.rank0.selfRefreshEnergy            0                       # Energy for self refresh per rank (pJ) (Joule)
system.mem_ctrl.dram.rank0.totalEnergy   142129366335                       # Total energy per rank (pJ) (Joule)
system.mem_ctrl.dram.rank0.averagePower    465.304945                       # Core power per rank (mW) (Watt)
system.mem_ctrl.dram.rank0.totalIdleTime            0                       # Total Idle time Per DRAM Rank (Tick)
system.mem_ctrl.dram.rank0.pwrStateTime::IDLE 295060715750                       # Time in different power states (Tick)
system.mem_ctrl.dram.rank0.pwrStateTime::REF  10199540000                       # Time in different power states (Tick)
system.mem_ctrl.dram.rank0.pwrStateTime::SREF            0                       # Time in different power states (Tick)
system.mem_ctrl.dram.rank0.pwrStateTime::PRE_PDN            0                       # Time in different power states (Tick)
system.mem_ctrl.dram.rank0.pwrStateTime::ACT    193980250                       # Time in different power states (Tick)
system.mem_ctrl.dram.rank0.pwrStateTime::ACT_PDN            0                       # Time in different power states (Tick)
system.mem_ctrl.dram.rank1.actEnergy          1934940                       # Energy for activate commands per rank (pJ) (Joule)
system.mem_ctrl.dram.rank1.preEnergy          1013265                       # Energy for precharge commands per rank (pJ) (Joule)
system.mem_ctrl.dram.rank1.readEnergy         9810360                       # Energy for read commands per rank (pJ) (Joule)
system.mem_ctrl.dram.rank1.writeEnergy              0                       # Energy for write commands per rank (pJ) (Joule)
system.mem_ctrl.dram.rank1.refreshEnergy 24111712560.000004                       # Energy for refresh commands per rank (pJ) (Joule)
system.mem_ctrl.dram.rank1.actBackEnergy   4487305620                       # Energy for active background per rank (pJ) (Joule)
system.mem_ctrl.dram.rank1.preBackEnergy 113515643040                       # Energy for precharge background per rank (pJ) (Joule)
system.mem_ctrl.dram.rank1.actPowerDownEnergy            0                       # Energy for active power-down per rank (pJ) (Joule)
system.mem_ctrl.dram.rank1.prePowerDownEnergy            0                       # Energy for precharge power-down per rank (pJ) (Joule)
system.mem_ctrl.dram.rank1.selfRefreshEnergy            0                       # Energy for self refresh per rank (pJ) (Joule)
system.mem_ctrl.dram.rank1.totalEnergy   142127419785                       # Total energy per rank (pJ) (Joule)
system.mem_ctrl.dram.rank1.averagePower    465.298572                       # Core power per rank (mW) (Watt)
system.mem_ctrl.dram.rank1.totalIdleTime            0                       # Total Idle time Per DRAM Rank (Tick)
system.mem_ctrl.dram.rank1.pwrStateTime::IDLE 295073878000                       # Time in different power states (Tick)
system.mem_ctrl.dram.rank1.pwrStateTime::REF  10199540000                       # Time in different power states (Tick)
system.mem_ctrl.dram.rank1.pwrStateTime::SREF            0                       # Time in different power states (Tick)
system.mem_ctrl.dram.rank1.pwrStateTime::PRE_PDN            0                       # Time in different power states (Tick)
system.mem_ctrl.dram.rank1.pwrStateTime::ACT    180818000                       # Time in different power states (Tick)
system.mem_ctrl.dram.rank1.pwrStateTime::ACT_PDN            0                       # Time in different power states (Tick)
system.mem_ctrl.power_state.pwrStateResidencyTicks::UNDEFINED 305454236000                       # Cumulative time (in ticks) in various power states (Tick)
system.membus.transDist::ReadResp                2406                       # Transaction distribution (Count)
system.membus.transDist::ReadExReq                361                       # Transaction distribution (Count)
system.membus.transDist::ReadExResp               361                       # Transaction distribution (Count)
system.membus.transDist::ReadSharedReq           2406                       # Transaction distribution (Count)
system.membus.pktCount_system.l2cache.mem_side_port::system.mem_ctrl.port         5534                       # Packet count per connected requestor and responder (Count)
system.membus.pktCount_system.l2cache.mem_side_port::total         5534                       # Packet count per connected requestor and responder (Count)
system.membus.pktCount::total                    5534                       # Packet count per connected requestor and responder (Count)
system.membus.pktSize_system.l2cache.mem_side_port::system.mem_ctrl.port       177088                       # Cumulative packet size per connected requestor and responder (Byte)
system.membus.pktSize_system.l2cache.mem_side_port::total       177088                       # Cumulative packet size per connected requestor and responder (Byte)
system.membus.pktSize::total                   177088                       # Cumulative packet size per connected requestor and responder (Byte)
system.membus.snoops                                0                       # Total snoops (Count)
system.membus.snoopTraffic                          0                       # Total snoop traffic (Byte)
system.membus.snoopFanout::samples               2767                       # Request fanout histogram (Count)
system.membus.snoopFanout::mean                     0                       # Request fanout histogram (Count)
system.membus.snoopFanout::stdev                    0                       # Request fanout histogram (Count)
system.membus.snoopFanout::underflows               0      0.00%      0.00% # Request fanout histogram (Count)
system.membus.snoopFanout::0                     2767    100.00%    100.00% # Request fanout histogram (Count)
system.membus.snoopFanout::1                        0      0.00%    100.00% # Request fanout histogram (Count)
system.membus.snoopFanout::overflows                0      0.00%    100.00% # Request fanout histogram (Count)
system.membus.snoopFanout::min_value                0                       # Request fanout histogram (Count)
system.membus.snoopFanout::max_value                0                       # Request fanout histogram (Count)
system.membus.snoopFanout::total                 2767                       # Request fanout histogram (Count)
system.membus.power_state.pwrStateResidencyTicks::UNDEFINED 305454236000                       # Cumulative time (in ticks) in various power states (Tick)
system.membus.reqLayer2.occupancy             1383500                       # Layer occupancy (ticks) (Tick)
system.membus.reqLayer2.utilization               0.0                       # Layer utilization (Ratio)
system.membus.respLayer0.occupancy            7512750                       # Layer occupancy (ticks) (Tick)
system.membus.respLayer0.utilization              0.0                       # Layer utilization (Ratio)
system.membus.snoop_filter.totRequests           2767                       # Total number of requests made to the snoop filter. (Count)
system.membus.snoop_filter.hitSingleRequests            0                       # Number of requests hitting in the snoop filter with a single holder of the requested data. (Count)
system.membus.snoop_filter.hitMultiRequests            0                       # Number of requests hitting in the snoop filter with multiple (>1) holders of the requested data. (Count)
system.membus.snoop_filter.totSnoops                0                       # Total number of snoops made to the snoop filter. (Count)
system.membus.snoop_filter.hitSingleSnoops            0                       # Number of snoops hitting in the snoop filter with a single holder of the requested data. (Count)
system.membus.snoop_filter.hitMultiSnoops            0                       # Number of snoops hitting in the snoop filter with multiple (>1) holders of the requested data. (Count)
system.workload.inst.arm                            0                       # number of arm instructions executed (Count)
system.workload.inst.quiesce                        0                       # number of quiesce instructions executed (Count)

---------- End Simulation Statistics   ----------
