
---------- Begin Simulation Statistics ----------
simSeconds                                   0.110662                       # Number of seconds simulated (Second)
simTicks                                 110661512500                       # Number of ticks simulated (Tick)
finalTick                                110661512500                       # Number of ticks from beginning of simulation (restored from checkpoints and never reset) (Tick)
simFreq                                  1000000000000                       # The number of ticks per simulated second ((Tick/Second))
hostSeconds                                   3593.60                       # Real time elapsed on the host (Second)
hostTickRate                                 30794081                       # The number of ticks simulated per host second (ticks/s) ((Tick/Second))
hostMemory                                    1216816                       # Number of bytes of host memory used (Byte)
simInsts                                    262991506                       # Number of instructions simulated (Count)
simOps                                      573706032                       # Number of ops (including micro ops) simulated (Count)
hostInstRate                                    73183                       # Simulator instruction rate (inst/s) ((Count/Second))
hostOpRate                                     159647                       # Simulator op (including micro ops) rate (op/s) ((Count/Second))
system.clk_domain.clock                           500                       # Clock period in ticks (Tick)
system.clk_domain.voltage_domain.voltage            1                       # Voltage in Volts (Volt)
system.cpu.numCycles                        221323026                       # Number of cpu cycles simulated (Cycle)
system.cpu.numWorkItemsStarted                      0                       # Number of work items this cpu started (Count)
system.cpu.numWorkItemsCompleted                    0                       # Number of work items this cpu completed (Count)
system.cpu.instsAdded                       738039330                       # Number of instructions added to the IQ (excludes non-spec) (Count)
system.cpu.nonSpecInstsAdded                   171016                       # Number of non-speculative instructions added to the IQ (Count)
system.cpu.instsIssued                      701357754                       # Number of instructions issued (Count)
system.cpu.squashedInstsIssued                1328712                       # Number of squashed instructions issued (Count)
system.cpu.squashedInstsExamined            164504308                       # Number of squashed instructions iterated over during squash; mainly for profiling (Count)
system.cpu.squashedOperandsExamined         234394451                       # Number of squashed operands that are examined and possibly removed from graph (Count)
system.cpu.squashedNonSpecRemoved                 526                       # Number of squashed non-spec instructions that were removed (Count)
system.cpu.numIssuedDist::samples           221209764                       # Number of insts issued each cycle (Count)
system.cpu.numIssuedDist::mean               3.170555                       # Number of insts issued each cycle (Count)
system.cpu.numIssuedDist::stdev              2.524435                       # Number of insts issued each cycle (Count)
system.cpu.numIssuedDist::underflows                0      0.00%      0.00% # Number of insts issued each cycle (Count)
system.cpu.numIssuedDist::0                  63896409     28.88%     28.88% # Number of insts issued each cycle (Count)
system.cpu.numIssuedDist::1                  10318227      4.66%     33.55% # Number of insts issued each cycle (Count)
system.cpu.numIssuedDist::2                  15355362      6.94%     40.49% # Number of insts issued each cycle (Count)
system.cpu.numIssuedDist::3                  17171674      7.76%     48.25% # Number of insts issued each cycle (Count)
system.cpu.numIssuedDist::4                  35515029     16.05%     64.31% # Number of insts issued each cycle (Count)
system.cpu.numIssuedDist::5                  36612830     16.55%     80.86% # Number of insts issued each cycle (Count)
system.cpu.numIssuedDist::6                  19638655      8.88%     89.74% # Number of insts issued each cycle (Count)
system.cpu.numIssuedDist::7                  15755039      7.12%     96.86% # Number of insts issued each cycle (Count)
system.cpu.numIssuedDist::8                   6946539      3.14%    100.00% # Number of insts issued each cycle (Count)
system.cpu.numIssuedDist::overflows                 0      0.00%    100.00% # Number of insts issued each cycle (Count)
system.cpu.numIssuedDist::min_value                 0                       # Number of insts issued each cycle (Count)
system.cpu.numIssuedDist::max_value                 8                       # Number of insts issued each cycle (Count)
system.cpu.numIssuedDist::total             221209764                       # Number of insts issued each cycle (Count)
system.cpu.statFuBusy::No_OpClass                   0      0.00%      0.00% # attempts to use FU when none available (Count)
system.cpu.statFuBusy::IntAlu                19374882     98.48%     98.48% # attempts to use FU when none available (Count)
system.cpu.statFuBusy::IntMult                      0      0.00%     98.48% # attempts to use FU when none available (Count)
system.cpu.statFuBusy::IntDiv                       0      0.00%     98.48% # attempts to use FU when none available (Count)
system.cpu.statFuBusy::FloatAdd                     0      0.00%     98.48% # attempts to use FU when none available (Count)
system.cpu.statFuBusy::FloatCmp                     0      0.00%     98.48% # attempts to use FU when none available (Count)
system.cpu.statFuBusy::FloatCvt                     0      0.00%     98.48% # attempts to use FU when none available (Count)
system.cpu.statFuBusy::FloatMult                    0      0.00%     98.48% # attempts to use FU when none available (Count)
system.cpu.statFuBusy::FloatMultAcc                 0      0.00%     98.48% # attempts to use FU when none available (Count)
system.cpu.statFuBusy::FloatDiv                     0      0.00%     98.48% # attempts to use FU when none available (Count)
system.cpu.statFuBusy::FloatMisc                    0      0.00%     98.48% # attempts to use FU when none available (Count)
system.cpu.statFuBusy::FloatSqrt                    0      0.00%     98.48% # attempts to use FU when none available (Count)
system.cpu.statFuBusy::SimdAdd                      0      0.00%     98.48% # attempts to use FU when none available (Count)
system.cpu.statFuBusy::SimdAddAcc                   0      0.00%     98.48% # attempts to use FU when none available (Count)
system.cpu.statFuBusy::SimdAlu                     18      0.00%     98.48% # attempts to use FU when none available (Count)
system.cpu.statFuBusy::SimdCmp                      0      0.00%     98.48% # attempts to use FU when none available (Count)
system.cpu.statFuBusy::SimdCvt                     10      0.00%     98.48% # attempts to use FU when none available (Count)
system.cpu.statFuBusy::SimdMisc                     3      0.00%     98.48% # attempts to use FU when none available (Count)
system.cpu.statFuBusy::SimdMult                     0      0.00%     98.48% # attempts to use FU when none available (Count)
system.cpu.statFuBusy::SimdMultAcc                  0      0.00%     98.48% # attempts to use FU when none available (Count)
system.cpu.statFuBusy::SimdShift                    1      0.00%     98.48% # attempts to use FU when none available (Count)
system.cpu.statFuBusy::SimdShiftAcc                 0      0.00%     98.48% # attempts to use FU when none available (Count)
system.cpu.statFuBusy::SimdDiv                      0      0.00%     98.48% # attempts to use FU when none available (Count)
system.cpu.statFuBusy::SimdSqrt                     0      0.00%     98.48% # attempts to use FU when none available (Count)
system.cpu.statFuBusy::SimdFloatAdd                 0      0.00%     98.48% # attempts to use FU when none available (Count)
system.cpu.statFuBusy::SimdFloatAlu                 0      0.00%     98.48% # attempts to use FU when none available (Count)
system.cpu.statFuBusy::SimdFloatCmp                 0      0.00%     98.48% # attempts to use FU when none available (Count)
system.cpu.statFuBusy::SimdFloatCvt                 0      0.00%     98.48% # attempts to use FU when none available (Count)
system.cpu.statFuBusy::SimdFloatDiv                 0      0.00%     98.48% # attempts to use FU when none available (Count)
system.cpu.statFuBusy::SimdFloatMisc                0      0.00%     98.48% # attempts to use FU when none available (Count)
system.cpu.statFuBusy::SimdFloatMult                0      0.00%     98.48% # attempts to use FU when none available (Count)
system.cpu.statFuBusy::SimdFloatMultAcc             0      0.00%     98.48% # attempts to use FU when none available (Count)
system.cpu.statFuBusy::SimdFloatSqrt                0      0.00%     98.48% # attempts to use FU when none available (Count)
system.cpu.statFuBusy::SimdReduceAdd                0      0.00%     98.48% # attempts to use FU when none available (Count)
system.cpu.statFuBusy::SimdReduceAlu                0      0.00%     98.48% # attempts to use FU when none available (Count)
system.cpu.statFuBusy::SimdReduceCmp                0      0.00%     98.48% # attempts to use FU when none available (Count)
system.cpu.statFuBusy::SimdFloatReduceAdd            0      0.00%     98.48% # attempts to use FU when none available (Count)
system.cpu.statFuBusy::SimdFloatReduceCmp            0      0.00%     98.48% # attempts to use FU when none available (Count)
system.cpu.statFuBusy::SimdAes                      0      0.00%     98.48% # attempts to use FU when none available (Count)
system.cpu.statFuBusy::SimdAesMix                   0      0.00%     98.48% # attempts to use FU when none available (Count)
system.cpu.statFuBusy::SimdSha1Hash                 0      0.00%     98.48% # attempts to use FU when none available (Count)
system.cpu.statFuBusy::SimdSha1Hash2                0      0.00%     98.48% # attempts to use FU when none available (Count)
system.cpu.statFuBusy::SimdSha256Hash               0      0.00%     98.48% # attempts to use FU when none available (Count)
system.cpu.statFuBusy::SimdSha256Hash2              0      0.00%     98.48% # attempts to use FU when none available (Count)
system.cpu.statFuBusy::SimdShaSigma2                0      0.00%     98.48% # attempts to use FU when none available (Count)
system.cpu.statFuBusy::SimdShaSigma3                0      0.00%     98.48% # attempts to use FU when none available (Count)
system.cpu.statFuBusy::SimdPredAlu                  0      0.00%     98.48% # attempts to use FU when none available (Count)
system.cpu.statFuBusy::MemRead                 142904      0.73%     99.21% # attempts to use FU when none available (Count)
system.cpu.statFuBusy::MemWrite                155438      0.79%    100.00% # attempts to use FU when none available (Count)
system.cpu.statFuBusy::FloatMemRead                37      0.00%    100.00% # attempts to use FU when none available (Count)
system.cpu.statFuBusy::FloatMemWrite              550      0.00%    100.00% # attempts to use FU when none available (Count)
system.cpu.statFuBusy::IprAccess                    0      0.00%    100.00% # attempts to use FU when none available (Count)
system.cpu.statFuBusy::InstPrefetch                 0      0.00%    100.00% # attempts to use FU when none available (Count)
system.cpu.statIssuedInstType_0::No_OpClass     12675105      1.81%      1.81% # Number of instructions issued per FU type, per thread (Count)
system.cpu.statIssuedInstType_0::IntAlu     547915443     78.12%     79.93% # Number of instructions issued per FU type, per thread (Count)
system.cpu.statIssuedInstType_0::IntMult        62764      0.01%     79.94% # Number of instructions issued per FU type, per thread (Count)
system.cpu.statIssuedInstType_0::IntDiv          1628      0.00%     79.94% # Number of instructions issued per FU type, per thread (Count)
system.cpu.statIssuedInstType_0::FloatAdd        43298      0.01%     79.94% # Number of instructions issued per FU type, per thread (Count)
system.cpu.statIssuedInstType_0::FloatCmp            0      0.00%     79.94% # Number of instructions issued per FU type, per thread (Count)
system.cpu.statIssuedInstType_0::FloatCvt           32      0.00%     79.94% # Number of instructions issued per FU type, per thread (Count)
system.cpu.statIssuedInstType_0::FloatMult            0      0.00%     79.94% # Number of instructions issued per FU type, per thread (Count)
system.cpu.statIssuedInstType_0::FloatMultAcc            0      0.00%     79.94% # Number of instructions issued per FU type, per thread (Count)
system.cpu.statIssuedInstType_0::FloatDiv            0      0.00%     79.94% # Number of instructions issued per FU type, per thread (Count)
system.cpu.statIssuedInstType_0::FloatMisc            0      0.00%     79.94% # Number of instructions issued per FU type, per thread (Count)
system.cpu.statIssuedInstType_0::FloatSqrt            0      0.00%     79.94% # Number of instructions issued per FU type, per thread (Count)
system.cpu.statIssuedInstType_0::SimdAdd          532      0.00%     79.94% # Number of instructions issued per FU type, per thread (Count)
system.cpu.statIssuedInstType_0::SimdAddAcc            0      0.00%     79.94% # Number of instructions issued per FU type, per thread (Count)
system.cpu.statIssuedInstType_0::SimdAlu       115171      0.02%     79.96% # Number of instructions issued per FU type, per thread (Count)
system.cpu.statIssuedInstType_0::SimdCmp            0      0.00%     79.96% # Number of instructions issued per FU type, per thread (Count)
system.cpu.statIssuedInstType_0::SimdCvt       115000      0.02%     79.98% # Number of instructions issued per FU type, per thread (Count)
system.cpu.statIssuedInstType_0::SimdMisc       271136      0.04%     80.02% # Number of instructions issued per FU type, per thread (Count)
system.cpu.statIssuedInstType_0::SimdMult            0      0.00%     80.02% # Number of instructions issued per FU type, per thread (Count)
system.cpu.statIssuedInstType_0::SimdMultAcc            0      0.00%     80.02% # Number of instructions issued per FU type, per thread (Count)
system.cpu.statIssuedInstType_0::SimdShift          504      0.00%     80.02% # Number of instructions issued per FU type, per thread (Count)
system.cpu.statIssuedInstType_0::SimdShiftAcc            0      0.00%     80.02% # Number of instructions issued per FU type, per thread (Count)
system.cpu.statIssuedInstType_0::SimdDiv            0      0.00%     80.02% # Number of instructions issued per FU type, per thread (Count)
system.cpu.statIssuedInstType_0::SimdSqrt            0      0.00%     80.02% # Number of instructions issued per FU type, per thread (Count)
system.cpu.statIssuedInstType_0::SimdFloatAdd            0      0.00%     80.02% # Number of instructions issued per FU type, per thread (Count)
system.cpu.statIssuedInstType_0::SimdFloatAlu            0      0.00%     80.02% # Number of instructions issued per FU type, per thread (Count)
system.cpu.statIssuedInstType_0::SimdFloatCmp            0      0.00%     80.02% # Number of instructions issued per FU type, per thread (Count)
system.cpu.statIssuedInstType_0::SimdFloatCvt            0      0.00%     80.02% # Number of instructions issued per FU type, per thread (Count)
system.cpu.statIssuedInstType_0::SimdFloatDiv            0      0.00%     80.02% # Number of instructions issued per FU type, per thread (Count)
system.cpu.statIssuedInstType_0::SimdFloatMisc            0      0.00%     80.02% # Number of instructions issued per FU type, per thread (Count)
system.cpu.statIssuedInstType_0::SimdFloatMult            0      0.00%     80.02% # Number of instructions issued per FU type, per thread (Count)
system.cpu.statIssuedInstType_0::SimdFloatMultAcc            0      0.00%     80.02% # Number of instructions issued per FU type, per thread (Count)
system.cpu.statIssuedInstType_0::SimdFloatSqrt            0      0.00%     80.02% # Number of instructions issued per FU type, per thread (Count)
system.cpu.statIssuedInstType_0::SimdReduceAdd            0      0.00%     80.02% # Number of instructions issued per FU type, per thread (Count)
system.cpu.statIssuedInstType_0::SimdReduceAlu            0      0.00%     80.02% # Number of instructions issued per FU type, per thread (Count)
system.cpu.statIssuedInstType_0::SimdReduceCmp            0      0.00%     80.02% # Number of instructions issued per FU type, per thread (Count)
system.cpu.statIssuedInstType_0::SimdFloatReduceAdd            0      0.00%     80.02% # Number of instructions issued per FU type, per thread (Count)
system.cpu.statIssuedInstType_0::SimdFloatReduceCmp            0      0.00%     80.02% # Number of instructions issued per FU type, per thread (Count)
system.cpu.statIssuedInstType_0::SimdAes            0      0.00%     80.02% # Number of instructions issued per FU type, per thread (Count)
system.cpu.statIssuedInstType_0::SimdAesMix            0      0.00%     80.02% # Number of instructions issued per FU type, per thread (Count)
system.cpu.statIssuedInstType_0::SimdSha1Hash            0      0.00%     80.02% # Number of instructions issued per FU type, per thread (Count)
system.cpu.statIssuedInstType_0::SimdSha1Hash2            0      0.00%     80.02% # Number of instructions issued per FU type, per thread (Count)
system.cpu.statIssuedInstType_0::SimdSha256Hash            0      0.00%     80.02% # Number of instructions issued per FU type, per thread (Count)
system.cpu.statIssuedInstType_0::SimdSha256Hash2            0      0.00%     80.02% # Number of instructions issued per FU type, per thread (Count)
system.cpu.statIssuedInstType_0::SimdShaSigma2            0      0.00%     80.02% # Number of instructions issued per FU type, per thread (Count)
system.cpu.statIssuedInstType_0::SimdShaSigma3            0      0.00%     80.02% # Number of instructions issued per FU type, per thread (Count)
system.cpu.statIssuedInstType_0::SimdPredAlu            0      0.00%     80.02% # Number of instructions issued per FU type, per thread (Count)
system.cpu.statIssuedInstType_0::MemRead     93281968     13.30%     93.32% # Number of instructions issued per FU type, per thread (Count)
system.cpu.statIssuedInstType_0::MemWrite     46659329      6.65%     99.97% # Number of instructions issued per FU type, per thread (Count)
system.cpu.statIssuedInstType_0::FloatMemRead        99266      0.01%     99.98% # Number of instructions issued per FU type, per thread (Count)
system.cpu.statIssuedInstType_0::FloatMemWrite       116578      0.02%    100.00% # Number of instructions issued per FU type, per thread (Count)
system.cpu.statIssuedInstType_0::IprAccess            0      0.00%    100.00% # Number of instructions issued per FU type, per thread (Count)
system.cpu.statIssuedInstType_0::InstPrefetch            0      0.00%    100.00% # Number of instructions issued per FU type, per thread (Count)
system.cpu.statIssuedInstType_0::total      701357754                       # Number of instructions issued per FU type, per thread (Count)
system.cpu.issueRate                         3.168933                       # Inst issue rate ((Count/Cycle))
system.cpu.fuBusy                            19673843                       # FU busy when requested (Count)
system.cpu.fuBusyRate                        0.028051                       # FU busy rate (busy events/executed inst) ((Count/Count))
system.cpu.intInstQueueReads               1643203935                       # Number of integer instruction queue reads (Count)
system.cpu.intInstQueueWrites               901854734                       # Number of integer instruction queue writes (Count)
system.cpu.intInstQueueWakeupAccesses       680519783                       # Number of integer instruction queue wakeup accesses (Count)
system.cpu.fpInstQueueReads                   1723892                       # Number of floating instruction queue reads (Count)
system.cpu.fpInstQueueWrites                   860599                       # Number of floating instruction queue writes (Count)
system.cpu.fpInstQueueWakeupAccesses           848348                       # Number of floating instruction queue wakeup accesses (Count)
system.cpu.vecInstQueueReads                        0                       # Number of vector instruction queue reads (Count)
system.cpu.vecInstQueueWrites                       0                       # Number of vector instruction queue writes (Count)
system.cpu.vecInstQueueWakeupAccesses               0                       # Number of vector instruction queue wakeup accesses (Count)
system.cpu.intAluAccesses                   707494508                       # Number of integer alu accesses (Count)
system.cpu.fpAluAccesses                       861984                       # Number of floating point alu accesses (Count)
system.cpu.vecAluAccesses                           0                       # Number of vector alu accesses (Count)
system.cpu.numInsts                         687670127                       # Number of executed instructions (Count)
system.cpu.numLoadInsts                      91076148                       # Number of load instructions executed (Count)
system.cpu.numSquashedInsts                  13687627                       # Number of squashed instructions skipped in execute (Count)
system.cpu.numSwp                                   0                       # Number of swp insts executed (Count)
system.cpu.numNop                                   0                       # Number of nop insts executed (Count)
system.cpu.numRefs                          136843907                       # Number of memory reference insts executed (Count)
system.cpu.numBranches                       61974170                       # Number of branches executed (Count)
system.cpu.numStoreInsts                     45767759                       # Number of stores executed (Count)
system.cpu.numRate                           3.107088                       # Inst execution rate ((Count/Cycle))
system.cpu.timesIdled                           13898                       # Number of times that the entire CPU went into an idle state and unscheduled itself (Count)
system.cpu.idleCycles                          113262                       # Total number of cycles that the CPU has spent unscheduled due to idling (Cycle)
system.cpu.committedInsts                   262991506                       # Number of Instructions Simulated (Count)
system.cpu.committedOps                     573706032                       # Number of Ops (including micro ops) Simulated (Count)
system.cpu.cpi                               0.841560                       # CPI: Cycles Per Instruction ((Cycle/Count))
system.cpu.totalCpi                          0.841560                       # CPI: Total CPI of All Threads ((Cycle/Count))
system.cpu.ipc                               1.188270                       # IPC: Instructions Per Cycle ((Count/Cycle))
system.cpu.totalIpc                          1.188270                       # IPC: Total IPC of All Threads ((Count/Cycle))
system.cpu.intRegfileReads                  751650850                       # Number of integer regfile reads (Count)
system.cpu.intRegfileWrites                 516114834                       # Number of integer regfile writes (Count)
system.cpu.fpRegfileReads                     1392165                       # Number of floating regfile reads (Count)
system.cpu.fpRegfileWrites                     674951                       # Number of floating regfile writes (Count)
system.cpu.ccRegfileReads                   233848719                       # number of cc regfile reads (Count)
system.cpu.ccRegfileWrites                  247922994                       # number of cc regfile writes (Count)
system.cpu.miscRegfileReads                 292398012                       # number of misc regfile reads (Count)
system.cpu.miscRegfileWrites                       18                       # number of misc regfile writes (Count)
system.cpu.MemDepUnit__0.insertedLoads       95929264                       # Number of loads inserted to the mem dependence unit. (Count)
system.cpu.MemDepUnit__0.insertedStores      49636411                       # Number of stores inserted to the mem dependence unit. (Count)
system.cpu.MemDepUnit__0.conflictingLoads       738097                       # Number of conflicting loads. (Count)
system.cpu.MemDepUnit__0.conflictingStores       612056                       # Number of conflicting stores. (Count)
system.cpu.MemDepUnit__1.insertedLoads              0                       # Number of loads inserted to the mem dependence unit. (Count)
system.cpu.MemDepUnit__1.insertedStores             0                       # Number of stores inserted to the mem dependence unit. (Count)
system.cpu.MemDepUnit__1.conflictingLoads            0                       # Number of conflicting loads. (Count)
system.cpu.MemDepUnit__1.conflictingStores            0                       # Number of conflicting stores. (Count)
system.cpu.MemDepUnit__2.insertedLoads              0                       # Number of loads inserted to the mem dependence unit. (Count)
system.cpu.MemDepUnit__2.insertedStores             0                       # Number of stores inserted to the mem dependence unit. (Count)
system.cpu.MemDepUnit__2.conflictingLoads            0                       # Number of conflicting loads. (Count)
system.cpu.MemDepUnit__2.conflictingStores            0                       # Number of conflicting stores. (Count)
system.cpu.MemDepUnit__3.insertedLoads              0                       # Number of loads inserted to the mem dependence unit. (Count)
system.cpu.MemDepUnit__3.insertedStores             0                       # Number of stores inserted to the mem dependence unit. (Count)
system.cpu.MemDepUnit__3.conflictingLoads            0                       # Number of conflicting loads. (Count)
system.cpu.MemDepUnit__3.conflictingStores            0                       # Number of conflicting stores. (Count)
system.cpu.branchPred.lookups                82790539                       # Number of BP lookups (Count)
system.cpu.branchPred.condPredicted          63730676                       # Number of conditional branches predicted (Count)
system.cpu.branchPred.condIncorrect           5795107                       # Number of conditional branches incorrect (Count)
system.cpu.branchPred.BTBLookups             52170885                       # Number of BTB lookups (Count)
system.cpu.branchPred.BTBUpdates              2057837                       # Number of BTB updates (Count)
system.cpu.branchPred.BTBHits                52155409                       # Number of BTB hits (Count)
system.cpu.branchPred.BTBHitRatio            0.999703                       # BTB Hit Ratio (Ratio)
system.cpu.branchPred.RASUsed                 6273121                       # Number of times the RAS was used to get a target. (Count)
system.cpu.branchPred.RASIncorrect                 15                       # Number of incorrect RAS predictions. (Count)
system.cpu.branchPred.indirectLookups         4749511                       # Number of indirect predictor lookups. (Count)
system.cpu.branchPred.indirectHits            4743902                       # Number of indirect target hits. (Count)
system.cpu.branchPred.indirectMisses             5609                       # Number of indirect misses. (Count)
system.cpu.branchPred.indirectMispredicted        28797                       # Number of mispredicted indirect branches. (Count)
system.cpu.commit.commitSquashedInsts       164076908                       # The number of squashed insts skipped by commit (Count)
system.cpu.commit.commitNonSpecStalls          170490                       # The number of times commit has been forced to stall to communicate backwards (Count)
system.cpu.commit.branchMispredicts           5794611                       # The number of times a branch was mispredicted (Count)
system.cpu.commit.numCommittedDist::samples    198048209                       # Number of insts commited each cycle (Count)
system.cpu.commit.numCommittedDist::mean     2.896800                       # Number of insts commited each cycle (Count)
system.cpu.commit.numCommittedDist::stdev     2.877915                       # Number of insts commited each cycle (Count)
system.cpu.commit.numCommittedDist::underflows            0      0.00%      0.00% # Number of insts commited each cycle (Count)
system.cpu.commit.numCommittedDist::0        62809859     31.71%     31.71% # Number of insts commited each cycle (Count)
system.cpu.commit.numCommittedDist::1        18782586      9.48%     41.20% # Number of insts commited each cycle (Count)
system.cpu.commit.numCommittedDist::2        17540679      8.86%     50.06% # Number of insts commited each cycle (Count)
system.cpu.commit.numCommittedDist::3        37326625     18.85%     68.90% # Number of insts commited each cycle (Count)
system.cpu.commit.numCommittedDist::4        13454812      6.79%     75.70% # Number of insts commited each cycle (Count)
system.cpu.commit.numCommittedDist::5         6190315      3.13%     78.82% # Number of insts commited each cycle (Count)
system.cpu.commit.numCommittedDist::6         4880678      2.46%     81.29% # Number of insts commited each cycle (Count)
system.cpu.commit.numCommittedDist::7         2693918      1.36%     82.65% # Number of insts commited each cycle (Count)
system.cpu.commit.numCommittedDist::8        34368737     17.35%    100.00% # Number of insts commited each cycle (Count)
system.cpu.commit.numCommittedDist::overflows            0      0.00%    100.00% # Number of insts commited each cycle (Count)
system.cpu.commit.numCommittedDist::min_value            0                       # Number of insts commited each cycle (Count)
system.cpu.commit.numCommittedDist::max_value            8                       # Number of insts commited each cycle (Count)
system.cpu.commit.numCommittedDist::total    198048209                       # Number of insts commited each cycle (Count)
system.cpu.commit.instsCommitted            262991506                       # Number of instructions committed (Count)
system.cpu.commit.opsCommitted              573706032                       # Number of ops (including micro ops) committed (Count)
system.cpu.commit.memRefs                   117966259                       # Number of memory references committed (Count)
system.cpu.commit.loads                      78324425                       # Number of loads committed (Count)
system.cpu.commit.amos                              0                       # Number of atomic instructions committed (Count)
system.cpu.commit.membars                      113648                       # Number of memory barriers committed (Count)
system.cpu.commit.branches                   57393783                       # Number of branches committed (Count)
system.cpu.commit.vectorInstructions                0                       # Number of committed Vector instructions. (Count)
system.cpu.commit.floating                     844373                       # Number of committed floating point instructions. (Count)
system.cpu.commit.integer                   562364996                       # Number of committed integer instructions. (Count)
system.cpu.commit.functionCalls               5372673                       # Number of function calls committed. (Count)
system.cpu.commit.committedInstType_0::No_OpClass     10640772      1.85%      1.85% # Class of committed instruction (Count)
system.cpu.commit.committedInstType_0::IntAlu    444494034     77.48%     79.33% # Class of committed instruction (Count)
system.cpu.commit.committedInstType_0::IntMult        59920      0.01%     79.34% # Class of committed instruction (Count)
system.cpu.commit.committedInstType_0::IntDiv         1501      0.00%     79.34% # Class of committed instruction (Count)
system.cpu.commit.committedInstType_0::FloatAdd        43052      0.01%     79.35% # Class of committed instruction (Count)
system.cpu.commit.committedInstType_0::FloatCmp            0      0.00%     79.35% # Class of committed instruction (Count)
system.cpu.commit.committedInstType_0::FloatCvt           32      0.00%     79.35% # Class of committed instruction (Count)
system.cpu.commit.committedInstType_0::FloatMult            0      0.00%     79.35% # Class of committed instruction (Count)
system.cpu.commit.committedInstType_0::FloatMultAcc            0      0.00%     79.35% # Class of committed instruction (Count)
system.cpu.commit.committedInstType_0::FloatDiv            0      0.00%     79.35% # Class of committed instruction (Count)
system.cpu.commit.committedInstType_0::FloatMisc            0      0.00%     79.35% # Class of committed instruction (Count)
system.cpu.commit.committedInstType_0::FloatSqrt            0      0.00%     79.35% # Class of committed instruction (Count)
system.cpu.commit.committedInstType_0::SimdAdd          382      0.00%     79.35% # Class of committed instruction (Count)
system.cpu.commit.committedInstType_0::SimdAddAcc            0      0.00%     79.35% # Class of committed instruction (Count)
system.cpu.commit.committedInstType_0::SimdAlu       114491      0.02%     79.37% # Class of committed instruction (Count)
system.cpu.commit.committedInstType_0::SimdCmp            0      0.00%     79.37% # Class of committed instruction (Count)
system.cpu.commit.committedInstType_0::SimdCvt       114516      0.02%     79.39% # Class of committed instruction (Count)
system.cpu.commit.committedInstType_0::SimdMisc       270865      0.05%     79.44% # Class of committed instruction (Count)
system.cpu.commit.committedInstType_0::SimdMult            0      0.00%     79.44% # Class of committed instruction (Count)
system.cpu.commit.committedInstType_0::SimdMultAcc            0      0.00%     79.44% # Class of committed instruction (Count)
system.cpu.commit.committedInstType_0::SimdShift          208      0.00%     79.44% # Class of committed instruction (Count)
system.cpu.commit.committedInstType_0::SimdShiftAcc            0      0.00%     79.44% # Class of committed instruction (Count)
system.cpu.commit.committedInstType_0::SimdDiv            0      0.00%     79.44% # Class of committed instruction (Count)
system.cpu.commit.committedInstType_0::SimdSqrt            0      0.00%     79.44% # Class of committed instruction (Count)
system.cpu.commit.committedInstType_0::SimdFloatAdd            0      0.00%     79.44% # Class of committed instruction (Count)
system.cpu.commit.committedInstType_0::SimdFloatAlu            0      0.00%     79.44% # Class of committed instruction (Count)
system.cpu.commit.committedInstType_0::SimdFloatCmp            0      0.00%     79.44% # Class of committed instruction (Count)
system.cpu.commit.committedInstType_0::SimdFloatCvt            0      0.00%     79.44% # Class of committed instruction (Count)
system.cpu.commit.committedInstType_0::SimdFloatDiv            0      0.00%     79.44% # Class of committed instruction (Count)
system.cpu.commit.committedInstType_0::SimdFloatMisc            0      0.00%     79.44% # Class of committed instruction (Count)
system.cpu.commit.committedInstType_0::SimdFloatMult            0      0.00%     79.44% # Class of committed instruction (Count)
system.cpu.commit.committedInstType_0::SimdFloatMultAcc            0      0.00%     79.44% # Class of committed instruction (Count)
system.cpu.commit.committedInstType_0::SimdFloatSqrt            0      0.00%     79.44% # Class of committed instruction (Count)
system.cpu.commit.committedInstType_0::SimdReduceAdd            0      0.00%     79.44% # Class of committed instruction (Count)
system.cpu.commit.committedInstType_0::SimdReduceAlu            0      0.00%     79.44% # Class of committed instruction (Count)
system.cpu.commit.committedInstType_0::SimdReduceCmp            0      0.00%     79.44% # Class of committed instruction (Count)
system.cpu.commit.committedInstType_0::SimdFloatReduceAdd            0      0.00%     79.44% # Class of committed instruction (Count)
system.cpu.commit.committedInstType_0::SimdFloatReduceCmp            0      0.00%     79.44% # Class of committed instruction (Count)
system.cpu.commit.committedInstType_0::SimdAes            0      0.00%     79.44% # Class of committed instruction (Count)
system.cpu.commit.committedInstType_0::SimdAesMix            0      0.00%     79.44% # Class of committed instruction (Count)
system.cpu.commit.committedInstType_0::SimdSha1Hash            0      0.00%     79.44% # Class of committed instruction (Count)
system.cpu.commit.committedInstType_0::SimdSha1Hash2            0      0.00%     79.44% # Class of committed instruction (Count)
system.cpu.commit.committedInstType_0::SimdSha256Hash            0      0.00%     79.44% # Class of committed instruction (Count)
system.cpu.commit.committedInstType_0::SimdSha256Hash2            0      0.00%     79.44% # Class of committed instruction (Count)
system.cpu.commit.committedInstType_0::SimdShaSigma2            0      0.00%     79.44% # Class of committed instruction (Count)
system.cpu.commit.committedInstType_0::SimdShaSigma3            0      0.00%     79.44% # Class of committed instruction (Count)
system.cpu.commit.committedInstType_0::SimdPredAlu            0      0.00%     79.44% # Class of committed instruction (Count)
system.cpu.commit.committedInstType_0::MemRead     78238160     13.64%     93.08% # Class of committed instruction (Count)
system.cpu.commit.committedInstType_0::MemWrite     39527040      6.89%     99.96% # Class of committed instruction (Count)
system.cpu.commit.committedInstType_0::FloatMemRead        86265      0.02%     99.98% # Class of committed instruction (Count)
system.cpu.commit.committedInstType_0::FloatMemWrite       114794      0.02%    100.00% # Class of committed instruction (Count)
system.cpu.commit.committedInstType_0::IprAccess            0      0.00%    100.00% # Class of committed instruction (Count)
system.cpu.commit.committedInstType_0::InstPrefetch            0      0.00%    100.00% # Class of committed instruction (Count)
system.cpu.commit.committedInstType_0::total    573706032                       # Class of committed instruction (Count)
system.cpu.commit.commitEligibleSamples      34368737                       # number cycles where commit BW limit reached (Cycle)
system.cpu.dcache.demandHits::cpu.data      120955249                       # number of demand (read+write) hits (Count)
system.cpu.dcache.demandHits::total         120955249                       # number of demand (read+write) hits (Count)
system.cpu.dcache.overallHits::cpu.data     120955249                       # number of overall hits (Count)
system.cpu.dcache.overallHits::total        120955249                       # number of overall hits (Count)
system.cpu.dcache.demandMisses::cpu.data         7175                       # number of demand (read+write) misses (Count)
system.cpu.dcache.demandMisses::total            7175                       # number of demand (read+write) misses (Count)
system.cpu.dcache.overallMisses::cpu.data         7175                       # number of overall misses (Count)
system.cpu.dcache.overallMisses::total           7175                       # number of overall misses (Count)
system.cpu.dcache.demandMissLatency::cpu.data    425234500                       # number of demand (read+write) miss ticks (Tick)
system.cpu.dcache.demandMissLatency::total    425234500                       # number of demand (read+write) miss ticks (Tick)
system.cpu.dcache.overallMissLatency::cpu.data    425234500                       # number of overall miss ticks (Tick)
system.cpu.dcache.overallMissLatency::total    425234500                       # number of overall miss ticks (Tick)
system.cpu.dcache.demandAccesses::cpu.data    120962424                       # number of demand (read+write) accesses (Count)
system.cpu.dcache.demandAccesses::total     120962424                       # number of demand (read+write) accesses (Count)
system.cpu.dcache.overallAccesses::cpu.data    120962424                       # number of overall (read+write) accesses (Count)
system.cpu.dcache.overallAccesses::total    120962424                       # number of overall (read+write) accesses (Count)
system.cpu.dcache.demandMissRate::cpu.data     0.000059                       # miss rate for demand accesses (Ratio)
system.cpu.dcache.demandMissRate::total      0.000059                       # miss rate for demand accesses (Ratio)
system.cpu.dcache.overallMissRate::cpu.data     0.000059                       # miss rate for overall accesses (Ratio)
system.cpu.dcache.overallMissRate::total     0.000059                       # miss rate for overall accesses (Ratio)
system.cpu.dcache.demandAvgMissLatency::cpu.data 59266.132404                       # average overall miss latency in ticks ((Tick/Count))
system.cpu.dcache.demandAvgMissLatency::total 59266.132404                       # average overall miss latency in ticks ((Tick/Count))
system.cpu.dcache.overallAvgMissLatency::cpu.data 59266.132404                       # average overall miss latency ((Tick/Count))
system.cpu.dcache.overallAvgMissLatency::total 59266.132404                       # average overall miss latency ((Tick/Count))
system.cpu.dcache.blockedCycles::no_mshrs        15757                       # number of cycles access was blocked (Cycle)
system.cpu.dcache.blockedCycles::no_targets            0                       # number of cycles access was blocked (Cycle)
system.cpu.dcache.blockedCauses::no_mshrs          322                       # number of times access was blocked (Count)
system.cpu.dcache.blockedCauses::no_targets            0                       # number of times access was blocked (Count)
system.cpu.dcache.avgBlocked::no_mshrs      48.934783                       # average number of cycles each access was blocked ((Cycle/Count))
system.cpu.dcache.avgBlocked::no_targets          nan                       # average number of cycles each access was blocked ((Cycle/Count))
system.cpu.dcache.writebacks::writebacks          418                       # number of writebacks (Count)
system.cpu.dcache.writebacks::total               418                       # number of writebacks (Count)
system.cpu.dcache.demandMshrHits::cpu.data         5053                       # number of demand (read+write) MSHR hits (Count)
system.cpu.dcache.demandMshrHits::total          5053                       # number of demand (read+write) MSHR hits (Count)
system.cpu.dcache.overallMshrHits::cpu.data         5053                       # number of overall MSHR hits (Count)
system.cpu.dcache.overallMshrHits::total         5053                       # number of overall MSHR hits (Count)
system.cpu.dcache.demandMshrMisses::cpu.data         2122                       # number of demand (read+write) MSHR misses (Count)
system.cpu.dcache.demandMshrMisses::total         2122                       # number of demand (read+write) MSHR misses (Count)
system.cpu.dcache.overallMshrMisses::cpu.data         2122                       # number of overall MSHR misses (Count)
system.cpu.dcache.overallMshrMisses::total         2122                       # number of overall MSHR misses (Count)
system.cpu.dcache.demandMshrMissLatency::cpu.data    143079000                       # number of demand (read+write) MSHR miss ticks (Tick)
system.cpu.dcache.demandMshrMissLatency::total    143079000                       # number of demand (read+write) MSHR miss ticks (Tick)
system.cpu.dcache.overallMshrMissLatency::cpu.data    143079000                       # number of overall MSHR miss ticks (Tick)
system.cpu.dcache.overallMshrMissLatency::total    143079000                       # number of overall MSHR miss ticks (Tick)
system.cpu.dcache.demandMshrMissRate::cpu.data     0.000018                       # mshr miss ratio for demand accesses (Ratio)
system.cpu.dcache.demandMshrMissRate::total     0.000018                       # mshr miss ratio for demand accesses (Ratio)
system.cpu.dcache.overallMshrMissRate::cpu.data     0.000018                       # mshr miss ratio for overall accesses (Ratio)
system.cpu.dcache.overallMshrMissRate::total     0.000018                       # mshr miss ratio for overall accesses (Ratio)
system.cpu.dcache.demandAvgMshrMissLatency::cpu.data 67426.484449                       # average overall mshr miss latency ((Tick/Count))
system.cpu.dcache.demandAvgMshrMissLatency::total 67426.484449                       # average overall mshr miss latency ((Tick/Count))
system.cpu.dcache.overallAvgMshrMissLatency::cpu.data 67426.484449                       # average overall mshr miss latency ((Tick/Count))
system.cpu.dcache.overallAvgMshrMissLatency::total 67426.484449                       # average overall mshr miss latency ((Tick/Count))
system.cpu.dcache.replacements                   1121                       # number of replacements (Count)
system.cpu.dcache.LockedRMWReadReq.hits::cpu.data        56821                       # number of LockedRMWReadReq hits (Count)
system.cpu.dcache.LockedRMWReadReq.hits::total        56821                       # number of LockedRMWReadReq hits (Count)
system.cpu.dcache.LockedRMWReadReq.misses::cpu.data            3                       # number of LockedRMWReadReq misses (Count)
system.cpu.dcache.LockedRMWReadReq.misses::total            3                       # number of LockedRMWReadReq misses (Count)
system.cpu.dcache.LockedRMWReadReq.missLatency::cpu.data       106500                       # number of LockedRMWReadReq miss ticks (Tick)
system.cpu.dcache.LockedRMWReadReq.missLatency::total       106500                       # number of LockedRMWReadReq miss ticks (Tick)
system.cpu.dcache.LockedRMWReadReq.accesses::cpu.data        56824                       # number of LockedRMWReadReq accesses(hits+misses) (Count)
system.cpu.dcache.LockedRMWReadReq.accesses::total        56824                       # number of LockedRMWReadReq accesses(hits+misses) (Count)
system.cpu.dcache.LockedRMWReadReq.missRate::cpu.data     0.000053                       # miss rate for LockedRMWReadReq accesses (Ratio)
system.cpu.dcache.LockedRMWReadReq.missRate::total     0.000053                       # miss rate for LockedRMWReadReq accesses (Ratio)
system.cpu.dcache.LockedRMWReadReq.avgMissLatency::cpu.data        35500                       # average LockedRMWReadReq miss latency ((Tick/Count))
system.cpu.dcache.LockedRMWReadReq.avgMissLatency::total        35500                       # average LockedRMWReadReq miss latency ((Tick/Count))
system.cpu.dcache.LockedRMWReadReq.mshrMisses::cpu.data            3                       # number of LockedRMWReadReq MSHR misses (Count)
system.cpu.dcache.LockedRMWReadReq.mshrMisses::total            3                       # number of LockedRMWReadReq MSHR misses (Count)
system.cpu.dcache.LockedRMWReadReq.mshrMissLatency::cpu.data    213300500                       # number of LockedRMWReadReq MSHR miss ticks (Tick)
system.cpu.dcache.LockedRMWReadReq.mshrMissLatency::total    213300500                       # number of LockedRMWReadReq MSHR miss ticks (Tick)
system.cpu.dcache.LockedRMWReadReq.mshrMissRate::cpu.data     0.000053                       # mshr miss rate for LockedRMWReadReq accesses (Ratio)
system.cpu.dcache.LockedRMWReadReq.mshrMissRate::total     0.000053                       # mshr miss rate for LockedRMWReadReq accesses (Ratio)
system.cpu.dcache.LockedRMWReadReq.avgMshrMissLatency::cpu.data 71100166.666667                       # average LockedRMWReadReq mshr miss latency ((Tick/Count))
system.cpu.dcache.LockedRMWReadReq.avgMshrMissLatency::total 71100166.666667                       # average LockedRMWReadReq mshr miss latency ((Tick/Count))
system.cpu.dcache.LockedRMWWriteReq.hits::cpu.data        56824                       # number of LockedRMWWriteReq hits (Count)
system.cpu.dcache.LockedRMWWriteReq.hits::total        56824                       # number of LockedRMWWriteReq hits (Count)
system.cpu.dcache.LockedRMWWriteReq.accesses::cpu.data        56824                       # number of LockedRMWWriteReq accesses(hits+misses) (Count)
system.cpu.dcache.LockedRMWWriteReq.accesses::total        56824                       # number of LockedRMWWriteReq accesses(hits+misses) (Count)
system.cpu.dcache.ReadReq.hits::cpu.data     81370861                       # number of ReadReq hits (Count)
system.cpu.dcache.ReadReq.hits::total        81370861                       # number of ReadReq hits (Count)
system.cpu.dcache.ReadReq.misses::cpu.data         6552                       # number of ReadReq misses (Count)
system.cpu.dcache.ReadReq.misses::total          6552                       # number of ReadReq misses (Count)
system.cpu.dcache.ReadReq.missLatency::cpu.data    381388500                       # number of ReadReq miss ticks (Tick)
system.cpu.dcache.ReadReq.missLatency::total    381388500                       # number of ReadReq miss ticks (Tick)
system.cpu.dcache.ReadReq.accesses::cpu.data     81377413                       # number of ReadReq accesses(hits+misses) (Count)
system.cpu.dcache.ReadReq.accesses::total     81377413                       # number of ReadReq accesses(hits+misses) (Count)
system.cpu.dcache.ReadReq.missRate::cpu.data     0.000081                       # miss rate for ReadReq accesses (Ratio)
system.cpu.dcache.ReadReq.missRate::total     0.000081                       # miss rate for ReadReq accesses (Ratio)
system.cpu.dcache.ReadReq.avgMissLatency::cpu.data 58209.478022                       # average ReadReq miss latency ((Tick/Count))
system.cpu.dcache.ReadReq.avgMissLatency::total 58209.478022                       # average ReadReq miss latency ((Tick/Count))
system.cpu.dcache.ReadReq.mshrHits::cpu.data         5050                       # number of ReadReq MSHR hits (Count)
system.cpu.dcache.ReadReq.mshrHits::total         5050                       # number of ReadReq MSHR hits (Count)
system.cpu.dcache.ReadReq.mshrMisses::cpu.data         1502                       # number of ReadReq MSHR misses (Count)
system.cpu.dcache.ReadReq.mshrMisses::total         1502                       # number of ReadReq MSHR misses (Count)
system.cpu.dcache.ReadReq.mshrMissLatency::cpu.data    100067500                       # number of ReadReq MSHR miss ticks (Tick)
system.cpu.dcache.ReadReq.mshrMissLatency::total    100067500                       # number of ReadReq MSHR miss ticks (Tick)
system.cpu.dcache.ReadReq.mshrMissRate::cpu.data     0.000018                       # mshr miss rate for ReadReq accesses (Ratio)
system.cpu.dcache.ReadReq.mshrMissRate::total     0.000018                       # mshr miss rate for ReadReq accesses (Ratio)
system.cpu.dcache.ReadReq.avgMshrMissLatency::cpu.data 66622.836218                       # average ReadReq mshr miss latency ((Tick/Count))
system.cpu.dcache.ReadReq.avgMshrMissLatency::total 66622.836218                       # average ReadReq mshr miss latency ((Tick/Count))
system.cpu.dcache.WriteReq.hits::cpu.data     39584388                       # number of WriteReq hits (Count)
system.cpu.dcache.WriteReq.hits::total       39584388                       # number of WriteReq hits (Count)
system.cpu.dcache.WriteReq.misses::cpu.data          623                       # number of WriteReq misses (Count)
system.cpu.dcache.WriteReq.misses::total          623                       # number of WriteReq misses (Count)
system.cpu.dcache.WriteReq.missLatency::cpu.data     43846000                       # number of WriteReq miss ticks (Tick)
system.cpu.dcache.WriteReq.missLatency::total     43846000                       # number of WriteReq miss ticks (Tick)
system.cpu.dcache.WriteReq.accesses::cpu.data     39585011                       # number of WriteReq accesses(hits+misses) (Count)
system.cpu.dcache.WriteReq.accesses::total     39585011                       # number of WriteReq accesses(hits+misses) (Count)
system.cpu.dcache.WriteReq.missRate::cpu.data     0.000016                       # miss rate for WriteReq accesses (Ratio)
system.cpu.dcache.WriteReq.missRate::total     0.000016                       # miss rate for WriteReq accesses (Ratio)
system.cpu.dcache.WriteReq.avgMissLatency::cpu.data 70378.812199                       # average WriteReq miss latency ((Tick/Count))
system.cpu.dcache.WriteReq.avgMissLatency::total 70378.812199                       # average WriteReq miss latency ((Tick/Count))
system.cpu.dcache.WriteReq.mshrHits::cpu.data            3                       # number of WriteReq MSHR hits (Count)
system.cpu.dcache.WriteReq.mshrHits::total            3                       # number of WriteReq MSHR hits (Count)
system.cpu.dcache.WriteReq.mshrMisses::cpu.data          620                       # number of WriteReq MSHR misses (Count)
system.cpu.dcache.WriteReq.mshrMisses::total          620                       # number of WriteReq MSHR misses (Count)
system.cpu.dcache.WriteReq.mshrMissLatency::cpu.data     43011500                       # number of WriteReq MSHR miss ticks (Tick)
system.cpu.dcache.WriteReq.mshrMissLatency::total     43011500                       # number of WriteReq MSHR miss ticks (Tick)
system.cpu.dcache.WriteReq.mshrMissRate::cpu.data     0.000016                       # mshr miss rate for WriteReq accesses (Ratio)
system.cpu.dcache.WriteReq.mshrMissRate::total     0.000016                       # mshr miss rate for WriteReq accesses (Ratio)
system.cpu.dcache.WriteReq.avgMshrMissLatency::cpu.data 69373.387097                       # average WriteReq mshr miss latency ((Tick/Count))
system.cpu.dcache.WriteReq.avgMshrMissLatency::total 69373.387097                       # average WriteReq mshr miss latency ((Tick/Count))
system.cpu.dcache.power_state.pwrStateResidencyTicks::UNDEFINED 110661512500                       # Cumulative time (in ticks) in various power states (Tick)
system.cpu.dcache.tags.tagsInUse          1003.528495                       # Average ticks per tags in use ((Tick/Count))
system.cpu.dcache.tags.totalRefs            121071019                       # Total number of references to valid blocks. (Count)
system.cpu.dcache.tags.sampledRefs               2125                       # Sample count of references to valid blocks. (Count)
system.cpu.dcache.tags.avgRefs           56974.597176                       # Average number of references to valid blocks. ((Count/Count))
system.cpu.dcache.tags.warmupTick              170500                       # The tick when the warmup percentage was hit. (Tick)
system.cpu.dcache.tags.occupancies::cpu.data  1003.528495                       # Average occupied blocks per tick, per requestor ((Count/Tick))
system.cpu.dcache.tags.avgOccs::cpu.data     0.980008                       # Average percentage of cache occupancy ((Ratio/Tick))
system.cpu.dcache.tags.avgOccs::total        0.980008                       # Average percentage of cache occupancy ((Ratio/Tick))
system.cpu.dcache.tags.occupanciesTaskId::1024         1004                       # Occupied blocks per task id (Count)
system.cpu.dcache.tags.ageTaskId_1024::0           22                       # Occupied blocks per task id, per block age (Count)
system.cpu.dcache.tags.ageTaskId_1024::4          982                       # Occupied blocks per task id, per block age (Count)
system.cpu.dcache.tags.ratioOccsTaskId::1024     0.980469                       # Ratio of occupied blocks and all blocks, per task id (Ratio)
system.cpu.dcache.tags.tagAccesses          242154269                       # Number of tag accesses (Count)
system.cpu.dcache.tags.dataAccesses         242154269                       # Number of data accesses (Count)
system.cpu.dcache.tags.power_state.pwrStateResidencyTicks::UNDEFINED 110661512500                       # Cumulative time (in ticks) in various power states (Tick)
system.cpu.decode.idleCycles                 69475745                       # Number of cycles decode is idle (Cycle)
system.cpu.decode.blockedCycles              18611075                       # Number of cycles decode is blocked (Cycle)
system.cpu.decode.runCycles                 122740047                       # Number of cycles decode is running (Cycle)
system.cpu.decode.unblockCycles               4573277                       # Number of cycles decode is unblocking (Cycle)
system.cpu.decode.squashCycles                5809620                       # Number of cycles decode is squashing (Cycle)
system.cpu.decode.branchResolved             50437019                       # Number of times decode resolved a branch (Count)
system.cpu.decode.branchMispred                   689                       # Number of times decode detected a branch misprediction (Count)
system.cpu.decode.decodedInsts              816772937                       # Number of instructions handled by decode (Count)
system.cpu.decode.squashedInsts                  3126                       # Number of squashed instructions handled by decode (Count)
system.cpu.fetch.icacheStallCycles           76677189                       # Number of cycles fetch is stalled on an Icache miss (Cycle)
system.cpu.fetch.insts                      381658294                       # Number of instructions fetch has processed (Count)
system.cpu.fetch.branches                    82790539                       # Number of branches that fetch encountered (Count)
system.cpu.fetch.predictedBranches           63172432                       # Number of branches that fetch has predicted taken (Count)
system.cpu.fetch.cycles                     138720319                       # Number of cycles fetch has run and was not squashing or blocked (Cycle)
system.cpu.fetch.squashCycles                11620594                       # Number of cycles fetch has spent squashing (Cycle)
system.cpu.fetch.miscStallCycles                  211                       # Number of cycles fetch has spent waiting on interrupts, or bad addresses, or out of MSHRs (Cycle)
system.cpu.fetch.pendingTrapStallCycles          1748                       # Number of stall cycles due to pending traps (Cycle)
system.cpu.fetch.cacheLines                  72847060                       # Number of cache lines fetched (Count)
system.cpu.fetch.icacheSquashes               2287835                       # Number of outstanding Icache misses that were squashed (Count)
system.cpu.fetch.nisnDist::samples          221209764                       # Number of instructions fetched each cycle (Total) (Count)
system.cpu.fetch.nisnDist::mean              3.788164                       # Number of instructions fetched each cycle (Total) (Count)
system.cpu.fetch.nisnDist::stdev             3.500281                       # Number of instructions fetched each cycle (Total) (Count)
system.cpu.fetch.nisnDist::underflows               0      0.00%      0.00% # Number of instructions fetched each cycle (Total) (Count)
system.cpu.fetch.nisnDist::0                 86874540     39.27%     39.27% # Number of instructions fetched each cycle (Total) (Count)
system.cpu.fetch.nisnDist::1                 10417691      4.71%     43.98% # Number of instructions fetched each cycle (Total) (Count)
system.cpu.fetch.nisnDist::2                  4468681      2.02%     46.00% # Number of instructions fetched each cycle (Total) (Count)
system.cpu.fetch.nisnDist::3                  1527310      0.69%     46.69% # Number of instructions fetched each cycle (Total) (Count)
system.cpu.fetch.nisnDist::4                  5264244      2.38%     49.07% # Number of instructions fetched each cycle (Total) (Count)
system.cpu.fetch.nisnDist::5                 22459089     10.15%     59.23% # Number of instructions fetched each cycle (Total) (Count)
system.cpu.fetch.nisnDist::6                 18835601      8.51%     67.74% # Number of instructions fetched each cycle (Total) (Count)
system.cpu.fetch.nisnDist::7                  3225057      1.46%     69.20% # Number of instructions fetched each cycle (Total) (Count)
system.cpu.fetch.nisnDist::8                 68137551     30.80%    100.00% # Number of instructions fetched each cycle (Total) (Count)
system.cpu.fetch.nisnDist::overflows                0      0.00%    100.00% # Number of instructions fetched each cycle (Total) (Count)
system.cpu.fetch.nisnDist::min_value                0                       # Number of instructions fetched each cycle (Total) (Count)
system.cpu.fetch.nisnDist::max_value                8                       # Number of instructions fetched each cycle (Total) (Count)
system.cpu.fetch.nisnDist::total            221209764                       # Number of instructions fetched each cycle (Total) (Count)
system.cpu.fetch.branchRate                  0.374071                       # Number of branch fetches per cycle (Ratio)
system.cpu.fetch.rate                        1.724440                       # Number of inst fetches per cycle ((Count/Cycle))
system.cpu.icache.demandHits::cpu.inst       72786208                       # number of demand (read+write) hits (Count)
system.cpu.icache.demandHits::total          72786208                       # number of demand (read+write) hits (Count)
system.cpu.icache.overallHits::cpu.inst      72786208                       # number of overall hits (Count)
system.cpu.icache.overallHits::total         72786208                       # number of overall hits (Count)
system.cpu.icache.demandMisses::cpu.inst        60852                       # number of demand (read+write) misses (Count)
system.cpu.icache.demandMisses::total           60852                       # number of demand (read+write) misses (Count)
system.cpu.icache.overallMisses::cpu.inst        60852                       # number of overall misses (Count)
system.cpu.icache.overallMisses::total          60852                       # number of overall misses (Count)
system.cpu.icache.demandMissLatency::cpu.inst    899849000                       # number of demand (read+write) miss ticks (Tick)
system.cpu.icache.demandMissLatency::total    899849000                       # number of demand (read+write) miss ticks (Tick)
system.cpu.icache.overallMissLatency::cpu.inst    899849000                       # number of overall miss ticks (Tick)
system.cpu.icache.overallMissLatency::total    899849000                       # number of overall miss ticks (Tick)
system.cpu.icache.demandAccesses::cpu.inst     72847060                       # number of demand (read+write) accesses (Count)
system.cpu.icache.demandAccesses::total      72847060                       # number of demand (read+write) accesses (Count)
system.cpu.icache.overallAccesses::cpu.inst     72847060                       # number of overall (read+write) accesses (Count)
system.cpu.icache.overallAccesses::total     72847060                       # number of overall (read+write) accesses (Count)
system.cpu.icache.demandMissRate::cpu.inst     0.000835                       # miss rate for demand accesses (Ratio)
system.cpu.icache.demandMissRate::total      0.000835                       # miss rate for demand accesses (Ratio)
system.cpu.icache.overallMissRate::cpu.inst     0.000835                       # miss rate for overall accesses (Ratio)
system.cpu.icache.overallMissRate::total     0.000835                       # miss rate for overall accesses (Ratio)
system.cpu.icache.demandAvgMissLatency::cpu.inst 14787.500822                       # average overall miss latency in ticks ((Tick/Count))
system.cpu.icache.demandAvgMissLatency::total 14787.500822                       # average overall miss latency in ticks ((Tick/Count))
system.cpu.icache.overallAvgMissLatency::cpu.inst 14787.500822                       # average overall miss latency ((Tick/Count))
system.cpu.icache.overallAvgMissLatency::total 14787.500822                       # average overall miss latency ((Tick/Count))
system.cpu.icache.blockedCycles::no_mshrs         1093                       # number of cycles access was blocked (Cycle)
system.cpu.icache.blockedCycles::no_targets            0                       # number of cycles access was blocked (Cycle)
system.cpu.icache.blockedCauses::no_mshrs            7                       # number of times access was blocked (Count)
system.cpu.icache.blockedCauses::no_targets            0                       # number of times access was blocked (Count)
system.cpu.icache.avgBlocked::no_mshrs     156.142857                       # average number of cycles each access was blocked ((Cycle/Count))
system.cpu.icache.avgBlocked::no_targets          nan                       # average number of cycles each access was blocked ((Cycle/Count))
system.cpu.icache.demandMshrHits::cpu.inst          540                       # number of demand (read+write) MSHR hits (Count)
system.cpu.icache.demandMshrHits::total           540                       # number of demand (read+write) MSHR hits (Count)
system.cpu.icache.overallMshrHits::cpu.inst          540                       # number of overall MSHR hits (Count)
system.cpu.icache.overallMshrHits::total          540                       # number of overall MSHR hits (Count)
system.cpu.icache.demandMshrMisses::cpu.inst        60312                       # number of demand (read+write) MSHR misses (Count)
system.cpu.icache.demandMshrMisses::total        60312                       # number of demand (read+write) MSHR misses (Count)
system.cpu.icache.overallMshrMisses::cpu.inst        60312                       # number of overall MSHR misses (Count)
system.cpu.icache.overallMshrMisses::total        60312                       # number of overall MSHR misses (Count)
system.cpu.icache.demandMshrMissLatency::cpu.inst    810587000                       # number of demand (read+write) MSHR miss ticks (Tick)
system.cpu.icache.demandMshrMissLatency::total    810587000                       # number of demand (read+write) MSHR miss ticks (Tick)
system.cpu.icache.overallMshrMissLatency::cpu.inst    810587000                       # number of overall MSHR miss ticks (Tick)
system.cpu.icache.overallMshrMissLatency::total    810587000                       # number of overall MSHR miss ticks (Tick)
system.cpu.icache.demandMshrMissRate::cpu.inst     0.000828                       # mshr miss ratio for demand accesses (Ratio)
system.cpu.icache.demandMshrMissRate::total     0.000828                       # mshr miss ratio for demand accesses (Ratio)
system.cpu.icache.overallMshrMissRate::cpu.inst     0.000828                       # mshr miss ratio for overall accesses (Ratio)
system.cpu.icache.overallMshrMissRate::total     0.000828                       # mshr miss ratio for overall accesses (Ratio)
system.cpu.icache.demandAvgMshrMissLatency::cpu.inst 13439.895875                       # average overall mshr miss latency ((Tick/Count))
system.cpu.icache.demandAvgMshrMissLatency::total 13439.895875                       # average overall mshr miss latency ((Tick/Count))
system.cpu.icache.overallAvgMshrMissLatency::cpu.inst 13439.895875                       # average overall mshr miss latency ((Tick/Count))
system.cpu.icache.overallAvgMshrMissLatency::total 13439.895875                       # average overall mshr miss latency ((Tick/Count))
system.cpu.icache.replacements                  60055                       # number of replacements (Count)
system.cpu.icache.ReadReq.hits::cpu.inst     72786208                       # number of ReadReq hits (Count)
system.cpu.icache.ReadReq.hits::total        72786208                       # number of ReadReq hits (Count)
system.cpu.icache.ReadReq.misses::cpu.inst        60852                       # number of ReadReq misses (Count)
system.cpu.icache.ReadReq.misses::total         60852                       # number of ReadReq misses (Count)
system.cpu.icache.ReadReq.missLatency::cpu.inst    899849000                       # number of ReadReq miss ticks (Tick)
system.cpu.icache.ReadReq.missLatency::total    899849000                       # number of ReadReq miss ticks (Tick)
system.cpu.icache.ReadReq.accesses::cpu.inst     72847060                       # number of ReadReq accesses(hits+misses) (Count)
system.cpu.icache.ReadReq.accesses::total     72847060                       # number of ReadReq accesses(hits+misses) (Count)
system.cpu.icache.ReadReq.missRate::cpu.inst     0.000835                       # miss rate for ReadReq accesses (Ratio)
system.cpu.icache.ReadReq.missRate::total     0.000835                       # miss rate for ReadReq accesses (Ratio)
system.cpu.icache.ReadReq.avgMissLatency::cpu.inst 14787.500822                       # average ReadReq miss latency ((Tick/Count))
system.cpu.icache.ReadReq.avgMissLatency::total 14787.500822                       # average ReadReq miss latency ((Tick/Count))
system.cpu.icache.ReadReq.mshrHits::cpu.inst          540                       # number of ReadReq MSHR hits (Count)
system.cpu.icache.ReadReq.mshrHits::total          540                       # number of ReadReq MSHR hits (Count)
system.cpu.icache.ReadReq.mshrMisses::cpu.inst        60312                       # number of ReadReq MSHR misses (Count)
system.cpu.icache.ReadReq.mshrMisses::total        60312                       # number of ReadReq MSHR misses (Count)
system.cpu.icache.ReadReq.mshrMissLatency::cpu.inst    810587000                       # number of ReadReq MSHR miss ticks (Tick)
system.cpu.icache.ReadReq.mshrMissLatency::total    810587000                       # number of ReadReq MSHR miss ticks (Tick)
system.cpu.icache.ReadReq.mshrMissRate::cpu.inst     0.000828                       # mshr miss rate for ReadReq accesses (Ratio)
system.cpu.icache.ReadReq.mshrMissRate::total     0.000828                       # mshr miss rate for ReadReq accesses (Ratio)
system.cpu.icache.ReadReq.avgMshrMissLatency::cpu.inst 13439.895875                       # average ReadReq mshr miss latency ((Tick/Count))
system.cpu.icache.ReadReq.avgMshrMissLatency::total 13439.895875                       # average ReadReq mshr miss latency ((Tick/Count))
system.cpu.icache.power_state.pwrStateResidencyTicks::UNDEFINED 110661512500                       # Cumulative time (in ticks) in various power states (Tick)
system.cpu.icache.tags.tagsInUse           255.966997                       # Average ticks per tags in use ((Tick/Count))
system.cpu.icache.tags.totalRefs             72846519                       # Total number of references to valid blocks. (Count)
system.cpu.icache.tags.sampledRefs              60311                       # Sample count of references to valid blocks. (Count)
system.cpu.icache.tags.avgRefs            1207.847971                       # Average number of references to valid blocks. ((Count/Count))
system.cpu.icache.tags.warmupTick               82000                       # The tick when the warmup percentage was hit. (Tick)
system.cpu.icache.tags.occupancies::cpu.inst   255.966997                       # Average occupied blocks per tick, per requestor ((Count/Tick))
system.cpu.icache.tags.avgOccs::cpu.inst     0.999871                       # Average percentage of cache occupancy ((Ratio/Tick))
system.cpu.icache.tags.avgOccs::total        0.999871                       # Average percentage of cache occupancy ((Ratio/Tick))
system.cpu.icache.tags.occupanciesTaskId::1024          256                       # Occupied blocks per task id (Count)
system.cpu.icache.tags.ageTaskId_1024::0          111                       # Occupied blocks per task id, per block age (Count)
system.cpu.icache.tags.ageTaskId_1024::4          145                       # Occupied blocks per task id, per block age (Count)
system.cpu.icache.tags.ratioOccsTaskId::1024            1                       # Ratio of occupied blocks and all blocks, per task id (Ratio)
system.cpu.icache.tags.tagAccesses          145754431                       # Number of tag accesses (Count)
system.cpu.icache.tags.dataAccesses         145754431                       # Number of data accesses (Count)
system.cpu.icache.tags.power_state.pwrStateResidencyTicks::UNDEFINED 110661512500                       # Cumulative time (in ticks) in various power states (Tick)
system.cpu.iew.idleCycles                           0                       # Number of cycles IEW is idle (Cycle)
system.cpu.iew.squashCycles                   5809620                       # Number of cycles IEW is squashing (Cycle)
system.cpu.iew.blockCycles                   17680899                       # Number of cycles IEW is blocking (Cycle)
system.cpu.iew.unblockCycles                    44754                       # Number of cycles IEW is unblocking (Cycle)
system.cpu.iew.dispatchedInsts              738210346                       # Number of instructions dispatched to IQ (Count)
system.cpu.iew.dispSquashedInsts                  301                       # Number of squashed instructions skipped by dispatch (Count)
system.cpu.iew.dispLoadInsts                 95929264                       # Number of dispatched load instructions (Count)
system.cpu.iew.dispStoreInsts                49636411                       # Number of dispatched store instructions (Count)
system.cpu.iew.dispNonSpecInsts                 57019                       # Number of dispatched non-speculative instructions (Count)
system.cpu.iew.iqFullEvents                     28326                       # Number of times the IQ has become full, causing a stall (Count)
system.cpu.iew.lsqFullEvents                     2096                       # Number of times the LSQ has become full, causing a stall (Count)
system.cpu.iew.memOrderViolationEvents            688                       # Number of memory order violations (Count)
system.cpu.iew.predictedTakenIncorrect        4610685                       # Number of branches that were predicted taken incorrectly (Count)
system.cpu.iew.predictedNotTakenIncorrect      2399132                       # Number of branches that were predicted not taken incorrectly (Count)
system.cpu.iew.branchMispredicts              7009817                       # Number of branch mispredicts detected at execute (Count)
system.cpu.iew.instsToCommit                683876832                       # Cumulative count of insts sent to commit (Count)
system.cpu.iew.writebackCount               681368131                       # Cumulative count of insts written-back (Count)
system.cpu.iew.producerInst                 471016373                       # Number of instructions producing a value (Count)
system.cpu.iew.consumerInst                 600550069                       # Number of instructions consuming a value (Count)
system.cpu.iew.wbRate                        3.078614                       # Insts written-back per cycle ((Count/Cycle))
system.cpu.iew.wbFanout                      0.784308                       # Average fanout of values written-back ((Count/Count))
system.cpu.interrupts.clk_domain.clock           8000                       # Clock period in ticks (Tick)
system.cpu.lsq0.forwLoads                     9629434                       # Number of loads that had data forwarded from stores (Count)
system.cpu.lsq0.squashedLoads                17604839                       # Number of loads squashed (Count)
system.cpu.lsq0.ignoredResponses                 3532                       # Number of memory responses ignored because the instruction is squashed (Count)
system.cpu.lsq0.memOrderViolation                 688                       # Number of memory ordering violations (Count)
system.cpu.lsq0.squashedStores                9994577                       # Number of stores squashed (Count)
system.cpu.lsq0.rescheduledLoads                11799                       # Number of loads that were rescheduled (Count)
system.cpu.lsq0.blockedByCache                    165                       # Number of times an access to memory failed due to the cache being blocked (Count)
system.cpu.lsq0.loadToUse::samples           78324425                       # Distribution of cycle latency between the first time a load is issued and its completion (Unspecified)
system.cpu.lsq0.loadToUse::mean              3.068174                       # Distribution of cycle latency between the first time a load is issued and its completion (Unspecified)
system.cpu.lsq0.loadToUse::stdev             1.285630                       # Distribution of cycle latency between the first time a load is issued and its completion (Unspecified)
system.cpu.lsq0.loadToUse::0-9               78307271     99.98%     99.98% # Distribution of cycle latency between the first time a load is issued and its completion (Unspecified)
system.cpu.lsq0.loadToUse::10-19                11529      0.01%     99.99% # Distribution of cycle latency between the first time a load is issued and its completion (Unspecified)
system.cpu.lsq0.loadToUse::20-29                  544      0.00%     99.99% # Distribution of cycle latency between the first time a load is issued and its completion (Unspecified)
system.cpu.lsq0.loadToUse::30-39                   40      0.00%     99.99% # Distribution of cycle latency between the first time a load is issued and its completion (Unspecified)
system.cpu.lsq0.loadToUse::40-49                   35      0.00%     99.99% # Distribution of cycle latency between the first time a load is issued and its completion (Unspecified)
system.cpu.lsq0.loadToUse::50-59                   54      0.00%     99.99% # Distribution of cycle latency between the first time a load is issued and its completion (Unspecified)
system.cpu.lsq0.loadToUse::60-69                  159      0.00%     99.99% # Distribution of cycle latency between the first time a load is issued and its completion (Unspecified)
system.cpu.lsq0.loadToUse::70-79                  380      0.00%     99.99% # Distribution of cycle latency between the first time a load is issued and its completion (Unspecified)
system.cpu.lsq0.loadToUse::80-89                  137      0.00%     99.99% # Distribution of cycle latency between the first time a load is issued and its completion (Unspecified)
system.cpu.lsq0.loadToUse::90-99                   75      0.00%     99.99% # Distribution of cycle latency between the first time a load is issued and its completion (Unspecified)
system.cpu.lsq0.loadToUse::100-109                 95      0.00%     99.99% # Distribution of cycle latency between the first time a load is issued and its completion (Unspecified)
system.cpu.lsq0.loadToUse::110-119                132      0.00%     99.99% # Distribution of cycle latency between the first time a load is issued and its completion (Unspecified)
system.cpu.lsq0.loadToUse::120-129                542      0.00%    100.00% # Distribution of cycle latency between the first time a load is issued and its completion (Unspecified)
system.cpu.lsq0.loadToUse::130-139               2195      0.00%    100.00% # Distribution of cycle latency between the first time a load is issued and its completion (Unspecified)
system.cpu.lsq0.loadToUse::140-149                313      0.00%    100.00% # Distribution of cycle latency between the first time a load is issued and its completion (Unspecified)
system.cpu.lsq0.loadToUse::150-159                162      0.00%    100.00% # Distribution of cycle latency between the first time a load is issued and its completion (Unspecified)
[...]
system.mem_ctrl.dram.bytesWritten::total          512                       # Number of bytes written to this memory (Byte)
system.mem_ctrl.dram.numReads::cpu.inst          1408                       # Number of read requests responded to by this memory (Count)
system.mem_ctrl.dram.numReads::cpu.data          1895                       # Number of read requests responded to by this memory (Count)
system.mem_ctrl.dram.numReads::total             3303                       # Number of read requests responded to by this memory (Count)
system.mem_ctrl.dram.numWrites::writebacks            8                       # Number of write requests responded to by this memory (Count)
system.mem_ctrl.dram.numWrites::total               8                       # Number of write requests responded to by this memory (Count)
system.mem_ctrl.dram.bwRead::cpu.inst          814303                       # Total read bandwidth from this memory ((Byte/Second))
system.mem_ctrl.dram.bwRead::cpu.data         1095955                       # Total read bandwidth from this memory ((Byte/Second))
system.mem_ctrl.dram.bwRead::total            1910258                       # Total read bandwidth from this memory ((Byte/Second))
system.mem_ctrl.dram.bwInstRead::cpu.inst       814303                       # Instruction read bandwidth from this memory ((Byte/Second))
system.mem_ctrl.dram.bwInstRead::total         814303                       # Instruction read bandwidth from this memory ((Byte/Second))
system.mem_ctrl.dram.bwWrite::writebacks         4627                       # Write bandwidth from this memory ((Byte/Second))
system.mem_ctrl.dram.bwWrite::total              4627                       # Write bandwidth from this memory ((Byte/Second))
system.mem_ctrl.dram.bwTotal::writebacks         4627                       # Total bandwidth to/from this memory ((Byte/Second))
system.mem_ctrl.dram.bwTotal::cpu.inst         814303                       # Total bandwidth to/from this memory ((Byte/Second))
system.mem_ctrl.dram.bwTotal::cpu.data        1095955                       # Total bandwidth to/from this memory ((Byte/Second))
system.mem_ctrl.dram.bwTotal::total           1914884                       # Total bandwidth to/from this memory ((Byte/Second))
system.mem_ctrl.dram.readBursts                  3303                       # Number of DRAM read bursts (Count)
system.mem_ctrl.dram.writeBursts                    0                       # Number of DRAM write bursts (Count)
system.mem_ctrl.dram.perBankRdBursts::0           178                       # Per bank write bursts (Count)
system.mem_ctrl.dram.perBankRdBursts::1           257                       # Per bank write bursts (Count)
system.mem_ctrl.dram.perBankRdBursts::2           227                       # Per bank write bursts (Count)
system.mem_ctrl.dram.perBankRdBursts::3           204                       # Per bank write bursts (Count)
system.mem_ctrl.dram.perBankRdBursts::4           166                       # Per bank write bursts (Count)
system.mem_ctrl.dram.perBankRdBursts::5           132                       # Per bank write bursts (Count)
system.mem_ctrl.dram.perBankRdBursts::6           180                       # Per bank write bursts (Count)
system.mem_ctrl.dram.perBankRdBursts::7           262                       # Per bank write bursts (Count)
system.mem_ctrl.dram.perBankRdBursts::8           188                       # Per bank write bursts (Count)
system.mem_ctrl.dram.perBankRdBursts::9           235                       # Per bank write bursts (Count)
system.mem_ctrl.dram.perBankRdBursts::10          111                       # Per bank write bursts (Count)
system.mem_ctrl.dram.perBankRdBursts::11          179                       # Per bank write bursts (Count)
system.mem_ctrl.dram.perBankRdBursts::12          183                       # Per bank write bursts (Count)
system.mem_ctrl.dram.perBankRdBursts::13          207                       # Per bank write bursts (Count)
system.mem_ctrl.dram.perBankRdBursts::14          289                       # Per bank write bursts (Count)
system.mem_ctrl.dram.perBankRdBursts::15          305                       # Per bank write bursts (Count)
system.mem_ctrl.dram.perBankWrBursts::0             0                       # Per bank write bursts (Count)
system.mem_ctrl.dram.perBankWrBursts::1             0                       # Per bank write bursts (Count)
system.mem_ctrl.dram.perBankWrBursts::2             0                       # Per bank write bursts (Count)
system.mem_ctrl.dram.perBankWrBursts::3             0                       # Per bank write bursts (Count)
system.mem_ctrl.dram.perBankWrBursts::4             0                       # Per bank write bursts (Count)
system.mem_ctrl.dram.perBankWrBursts::5             0                       # Per bank write bursts (Count)
system.mem_ctrl.dram.perBankWrBursts::6             0                       # Per bank write bursts (Count)
system.mem_ctrl.dram.perBankWrBursts::7             0                       # Per bank write bursts (Count)
system.mem_ctrl.dram.perBankWrBursts::8             0                       # Per bank write bursts (Count)
system.mem_ctrl.dram.perBankWrBursts::9             0                       # Per bank write bursts (Count)
system.mem_ctrl.dram.perBankWrBursts::10            0                       # Per bank write bursts (Count)
system.mem_ctrl.dram.perBankWrBursts::11            0                       # Per bank write bursts (Count)
system.mem_ctrl.dram.perBankWrBursts::12            0                       # Per bank write bursts (Count)
system.mem_ctrl.dram.perBankWrBursts::13            0                       # Per bank write bursts (Count)
system.mem_ctrl.dram.perBankWrBursts::14            0                       # Per bank write bursts (Count)
system.mem_ctrl.dram.perBankWrBursts::15            0                       # Per bank write bursts (Count)
system.mem_ctrl.dram.totQLat                 26244000                       # Total ticks spent queuing (Tick)
system.mem_ctrl.dram.totBusLat               16515000                       # Total ticks spent in databus transfers (Tick)
system.mem_ctrl.dram.totMemAccLat            88175250                       # Total ticks spent from burst creation until serviced by the DRAM (Tick)
system.mem_ctrl.dram.avgQLat                  7945.50                       # Average queueing delay per DRAM burst ((Tick/Count))
system.mem_ctrl.dram.avgBusLat                5000.00                       # Average bus latency per DRAM burst ((Tick/Count))
system.mem_ctrl.dram.avgMemAccLat            26695.50                       # Average memory access latency per DRAM burst ((Tick/Count))
system.mem_ctrl.dram.readRowHits                 2682                       # Number of row buffer hits during reads (Count)
system.mem_ctrl.dram.writeRowHits                   0                       # Number of row buffer hits during writes (Count)
system.mem_ctrl.dram.readRowHitRate             81.20                       # Row buffer hit rate for reads (Ratio)
system.mem_ctrl.dram.writeRowHitRate              nan                       # Row buffer hit rate for writes (Ratio)
system.mem_ctrl.dram.bytesPerActivate::samples          612                       # Bytes accessed per row activation (Byte)
system.mem_ctrl.dram.bytesPerActivate::mean   342.065359                       # Bytes accessed per row activation (Byte)
system.mem_ctrl.dram.bytesPerActivate::gmean   207.014163                       # Bytes accessed per row activation (Byte)
system.mem_ctrl.dram.bytesPerActivate::stdev   336.912207                       # Bytes accessed per row activation (Byte)
system.mem_ctrl.dram.bytesPerActivate::0-127          192     31.37%     31.37% # Bytes accessed per row activation (Byte)
system.mem_ctrl.dram.bytesPerActivate::128-255          152     24.84%     56.21% # Bytes accessed per row activation (Byte)
system.mem_ctrl.dram.bytesPerActivate::256-383           70     11.44%     67.65% # Bytes accessed per row activation (Byte)
system.mem_ctrl.dram.bytesPerActivate::384-511           36      5.88%     73.53% # Bytes accessed per row activation (Byte)
system.mem_ctrl.dram.bytesPerActivate::512-639           27      4.41%     77.94% # Bytes accessed per row activation (Byte)
system.mem_ctrl.dram.bytesPerActivate::640-767           27      4.41%     82.35% # Bytes accessed per row activation (Byte)
system.mem_ctrl.dram.bytesPerActivate::768-895           15      2.45%     84.80% # Bytes accessed per row activation (Byte)
system.mem_ctrl.dram.bytesPerActivate::896-1023           15      2.45%     87.25% # Bytes accessed per row activation (Byte)
system.mem_ctrl.dram.bytesPerActivate::1024-1151           78     12.75%    100.00% # Bytes accessed per row activation (Byte)
system.mem_ctrl.dram.bytesPerActivate::total          612                       # Bytes accessed per row activation (Byte)
system.mem_ctrl.dram.bytesRead                 211392                       # Total bytes read (Byte)
system.mem_ctrl.dram.bytesWritten                   0                       # Total bytes written (Byte)
system.mem_ctrl.dram.avgRdBW                 1.910258                       # Average DRAM read bandwidth in MiBytes/s ((Byte/Second))
system.mem_ctrl.dram.avgWrBW                        0                       # Average DRAM write bandwidth in MiBytes/s ((Byte/Second))
system.mem_ctrl.dram.peakBW                  12800.00                       # Theoretical peak bandwidth in MiByte/s ((Byte/Second))
system.mem_ctrl.dram.busUtil                     0.01                       # Data bus utilization in percentage (Ratio)
system.mem_ctrl.dram.busUtilRead                 0.01                       # Data bus utilization in percentage for reads (Ratio)
system.mem_ctrl.dram.busUtilWrite                0.00                       # Data bus utilization in percentage for writes (Ratio)
system.mem_ctrl.dram.pageHitRate                81.20                       # Row buffer hit rate, read and write combined (Ratio)
system.mem_ctrl.dram.power_state.pwrStateResidencyTicks::UNDEFINED 110661512500                       # Cumulative time (in ticks) in various power states (Tick)
system.mem_ctrl.dram.rank0.actEnergy          2527560                       # Energy for activate commands per rank (pJ) (Joule)
system.mem_ctrl.dram.rank0.preEnergy          1328250                       # Energy for precharge commands per rank (pJ) (Joule)
system.mem_ctrl.dram.rank0.readEnergy        11466840                       # Energy for read commands per rank (pJ) (Joule)
system.mem_ctrl.dram.rank0.writeEnergy              0                       # Energy for write commands per rank (pJ) (Joule)
system.mem_ctrl.dram.rank0.refreshEnergy 8735263680.000002                       # Energy for refresh commands per rank (pJ) (Joule)
system.mem_ctrl.dram.rank0.actBackEnergy   1679713050                       # Energy for active background per rank (pJ) (Joule)
system.mem_ctrl.dram.rank0.preBackEnergy  41079525600                       # Energy for precharge background per rank (pJ) (Joule)
system.mem_ctrl.dram.rank0.actPowerDownEnergy            0                       # Energy for active power-down per rank (pJ) (Joule)
system.mem_ctrl.dram.rank0.prePowerDownEnergy            0                       # Energy for precharge power-down per rank (pJ) (Joule)
system.mem_ctrl.dram.rank0.selfRefreshEnergy            0                       # Energy for self refresh per rank (pJ) (Joule)
system.mem_ctrl.dram.rank0.totalEnergy    51509824980                       # Total energy per rank (pJ) (Joule)
system.mem_ctrl.dram.rank0.averagePower    465.471905                       # Core power per rank (mW) (Watt)
system.mem_ctrl.dram.rank0.totalIdleTime            0                       # Total Idle time Per DRAM Rank (Tick)
system.mem_ctrl.dram.rank0.pwrStateTime::IDLE 106782097500                       # Time in different power states (Tick)
system.mem_ctrl.dram.rank0.pwrStateTime::REF   3695120000                       # Time in different power states (Tick)
system.mem_ctrl.dram.rank0.pwrStateTime::SREF            0                       # Time in different power states (Tick)
system.mem_ctrl.dram.rank0.pwrStateTime::PRE_PDN            0                       # Time in different power states (Tick)
system.mem_ctrl.dram.rank0.pwrStateTime::ACT    184295000                       # Time in different power states (Tick)
system.mem_ctrl.dram.rank0.pwrStateTime::ACT_PDN            0                       # Time in different power states (Tick)
system.mem_ctrl.dram.rank1.actEnergy          1906380                       # Energy for activate commands per rank (pJ) (Joule)
system.mem_ctrl.dram.rank1.preEnergy           994290                       # Energy for precharge commands per rank (pJ) (Joule)
system.mem_ctrl.dram.rank1.readEnergy        12116580                       # Energy for read commands per rank (pJ) (Joule)
system.mem_ctrl.dram.rank1.writeEnergy              0                       # Energy for write commands per rank (pJ) (Joule)
system.mem_ctrl.dram.rank1.refreshEnergy 8735263680.000002                       # Energy for refresh commands per rank (pJ) (Joule)
system.mem_ctrl.dram.rank1.actBackEnergy   1674596160                       # Energy for active background per rank (pJ) (Joule)
system.mem_ctrl.dram.rank1.preBackEnergy  41083834560                       # Energy for precharge background per rank (pJ) (Joule)
system.mem_ctrl.dram.rank1.actPowerDownEnergy            0                       # Energy for active power-down per rank (pJ) (Joule)
system.mem_ctrl.dram.rank1.prePowerDownEnergy            0                       # Energy for precharge power-down per rank (pJ) (Joule)
system.mem_ctrl.dram.rank1.selfRefreshEnergy            0                       # Energy for self refresh per rank (pJ) (Joule)
system.mem_ctrl.dram.rank1.totalEnergy    51508711650                       # Total energy per rank (pJ) (Joule)
system.mem_ctrl.dram.rank1.averagePower    465.461844                       # Core power per rank (mW) (Watt)
system.mem_ctrl.dram.rank1.totalIdleTime            0                       # Total Idle time Per DRAM Rank (Tick)
system.mem_ctrl.dram.rank1.pwrStateTime::IDLE 106793357000                       # Time in different power states (Tick)
system.mem_ctrl.dram.rank1.pwrStateTime::REF   3695120000                       # Time in different power states (Tick)
system.mem_ctrl.dram.rank1.pwrStateTime::SREF            0                       # Time in different power states (Tick)
system.mem_ctrl.dram.rank1.pwrStateTime::PRE_PDN            0                       # Time in different power states (Tick)
system.mem_ctrl.dram.rank1.pwrStateTime::ACT    173035500                       # Time in different power states (Tick)
system.mem_ctrl.dram.rank1.pwrStateTime::ACT_PDN            0                       # Time in different power states (Tick)
system.mem_ctrl.power_state.pwrStateResidencyTicks::UNDEFINED 110661512500                       # Cumulative time (in ticks) in various power states (Tick)
system.membus.transDist::ReadResp                2708                       # Transaction distribution (Count)
system.membus.transDist::WritebackDirty             8                       # Transaction distribution (Count)
system.membus.transDist::CleanEvict                91                       # Transaction distribution (Count)
system.membus.transDist::ReadExReq                595                       # Transaction distribution (Count)
system.membus.transDist::ReadExResp               595                       # Transaction distribution (Count)
system.membus.transDist::ReadSharedReq           2708                       # Transaction distribution (Count)
system.membus.pktCount_system.l2cache.mem_side_port::system.mem_ctrl.port         6705                       # Packet count per connected requestor and responder (Count)
system.membus.pktCount_system.l2cache.mem_side_port::total         6705                       # Packet count per connected requestor and responder (Count)
system.membus.pktCount::total                    6705                       # Packet count per connected requestor and responder (Count)
system.membus.pktSize_system.l2cache.mem_side_port::system.mem_ctrl.port       211904                       # Cumulative packet size per connected requestor and responder (Byte)
system.membus.pktSize_system.l2cache.mem_side_port::total       211904                       # Cumulative packet size per connected requestor and responder (Byte)
system.membus.pktSize::total                   211904                       # Cumulative packet size per connected requestor and responder (Byte)
system.membus.snoops                                0                       # Total snoops (Count)
system.membus.snoopTraffic                          0                       # Total snoop traffic (Byte)
system.membus.snoopFanout::samples               3303                       # Request fanout histogram (Count)
system.membus.snoopFanout::mean                     0                       # Request fanout histogram (Count)
system.membus.snoopFanout::stdev                    0                       # Request fanout histogram (Count)
system.membus.snoopFanout::underflows               0      0.00%      0.00% # Request fanout histogram (Count)
system.membus.snoopFanout::0                     3303    100.00%    100.00% # Request fanout histogram (Count)
system.membus.snoopFanout::1                        0      0.00%    100.00% # Request fanout histogram (Count)
system.membus.snoopFanout::overflows                0      0.00%    100.00% # Request fanout histogram (Count)
system.membus.snoopFanout::min_value                0                       # Request fanout histogram (Count)
system.membus.snoopFanout::max_value                0                       # Request fanout histogram (Count)
system.membus.snoopFanout::total                 3303                       # Request fanout histogram (Count)
system.membus.power_state.pwrStateResidencyTicks::UNDEFINED 110661512500                       # Cumulative time (in ticks) in various power states (Tick)
system.membus.reqLayer2.occupancy             1717000                       # Layer occupancy (ticks) (Tick)
system.membus.reqLayer2.utilization               0.0                       # Layer utilization (Ratio)
system.membus.respLayer0.occupancy            8985250                       # Layer occupancy (ticks) (Tick)
system.membus.respLayer0.utilization              0.0                       # Layer utilization (Ratio)
system.membus.snoop_filter.totRequests           3402                       # Total number of requests made to the snoop filter. (Count)
system.membus.snoop_filter.hitSingleRequests           99                       # Number of requests hitting in the snoop filter with a single holder of the requested data. (Count)
system.membus.snoop_filter.hitMultiRequests            0                       # Number of requests hitting in the snoop filter with multiple (>1) holders of the requested data. (Count)
system.membus.snoop_filter.totSnoops                0                       # Total number of snoops made to the snoop filter. (Count)
system.membus.snoop_filter.hitSingleSnoops            0                       # Number of snoops hitting in the snoop filter with a single holder of the requested data. (Count)
system.membus.snoop_filter.hitMultiSnoops            0                       # Number of snoops hitting in the snoop filter with multiple (>1) holders of the requested data. (Count)
system.workload.inst.arm                            0                       # number of arm instructions executed (Count)
system.workload.inst.quiesce                        0                       # number of quiesce instructions executed (Count)

---------- End Simulation Statistics   ----------
