
---------- Begin Simulation Statistics ----------
simSeconds                                   0.309891                       # Number of seconds simulated (Second)
simTicks                                 309890902500                       # Number of ticks simulated (Tick)
finalTick                                309890902500                       # Number of ticks from beginning of simulation (restored from checkpoints and never reset) (Tick)
simFreq                                  1000000000000                       # The number of ticks per simulated second ((Tick/Second))
hostSeconds                                   5081.33                       # Real time elapsed on the host (Second)
hostTickRate                                 60986226                       # The number of ticks simulated per host second (ticks/s) ((Tick/Second))
hostMemory                                    1233484                       # Number of bytes of host memory used (Byte)
simInsts                                    419442540                       # Number of instructions simulated (Count)
simOps                                      829695577                       # Number of ops (including micro ops) simulated (Count)
hostInstRate                                    82546                       # Simulator instruction rate (inst/s) ((Count/Second))
hostOpRate                                     163283                       # Simulator op (including micro ops) rate (op/s) ((Count/Second))
system.clk_domain.clock                           500                       # Clock period in ticks (Tick)
system.clk_domain.voltage_domain.voltage            1                       # Voltage in Volts (Volt)
system.cpu.numCycles                        619781509                       # Number of cpu cycles simulated (Cycle)
system.cpu.numWorkItemsStarted                      0                       # Number of work items this cpu started (Count)
system.cpu.numWorkItemsCompleted                    0                       # Number of work items this cpu completed (Count)
system.cpu.instsAdded                      1369068578                       # Number of instructions added to the IQ (excludes non-spec) (Count)
system.cpu.nonSpecInstsAdded                 48874726                       # Number of non-speculative instructions added to the IQ (Count)
system.cpu.instsIssued                     1161396973                       # Number of instructions issued (Count)
system.cpu.squashedInstsIssued                1397250                       # Number of squashed instructions issued (Count)
system.cpu.squashedInstsExamined            588247721                       # Number of squashed instructions iterated over during squash; mainly for profiling (Count)
system.cpu.squashedOperandsExamined        1123834033                       # Number of squashed operands that are examined and possibly removed from graph (Count)
system.cpu.squashedNonSpecRemoved            23144230                       # Number of squashed non-spec instructions that were removed (Count)
system.cpu.numIssuedDist::samples           619671400                       # Number of insts issued each cycle (Count)
system.cpu.numIssuedDist::mean               1.874214                       # Number of insts issued each cycle (Count)
system.cpu.numIssuedDist::stdev              2.060163                       # Number of insts issued each cycle (Count)
system.cpu.numIssuedDist::underflows                0      0.00%      0.00% # Number of insts issued each cycle (Count)
system.cpu.numIssuedDist::0                 241306571     38.94%     38.94% # Number of insts issued each cycle (Count)
system.cpu.numIssuedDist::1                  95546515     15.42%     54.36% # Number of insts issued each cycle (Count)
system.cpu.numIssuedDist::2                  74542759     12.03%     66.39% # Number of insts issued each cycle (Count)
system.cpu.numIssuedDist::3                  64197408     10.36%     76.75% # Number of insts issued each cycle (Count)
system.cpu.numIssuedDist::4                  66833611     10.79%     87.53% # Number of insts issued each cycle (Count)
system.cpu.numIssuedDist::5                  29352186      4.74%     92.27% # Number of insts issued each cycle (Count)
system.cpu.numIssuedDist::6                  31468247      5.08%     97.35% # Number of insts issued each cycle (Count)
system.cpu.numIssuedDist::7                  10124964      1.63%     98.98% # Number of insts issued each cycle (Count)
system.cpu.numIssuedDist::8                   6299139      1.02%    100.00% # Number of insts issued each cycle (Count)
system.cpu.numIssuedDist::overflows                 0      0.00%    100.00% # Number of insts issued each cycle (Count)
system.cpu.numIssuedDist::min_value                 0                       # Number of insts issued each cycle (Count)
system.cpu.numIssuedDist::max_value                 8                       # Number of insts issued each cycle (Count)
system.cpu.numIssuedDist::total             619671400                       # Number of insts issued each cycle (Count)
system.cpu.statFuBusy::No_OpClass                   0      0.00%      0.00% # attempts to use FU when none available (Count)
system.cpu.statFuBusy::IntAlu                14915218     52.92%     52.92% # attempts to use FU when none available (Count)
system.cpu.statFuBusy::IntMult                      0      0.00%     52.92% # attempts to use FU when none available (Count)
system.cpu.statFuBusy::IntDiv                       0      0.00%     52.92% # attempts to use FU when none available (Count)
system.cpu.statFuBusy::FloatAdd                     0      0.00%     52.92% # attempts to use FU when none available (Count)
system.cpu.statFuBusy::FloatCmp                     0      0.00%     52.92% # attempts to use FU when none available (Count)
system.cpu.statFuBusy::FloatCvt                     0      0.00%     52.92% # attempts to use FU when none available (Count)
system.cpu.statFuBusy::FloatMult                    0      0.00%     52.92% # attempts to use FU when none available (Count)
system.cpu.statFuBusy::FloatMultAcc                 0      0.00%     52.92% # attempts to use FU when none available (Count)
system.cpu.statFuBusy::FloatDiv                     0      0.00%     52.92% # attempts to use FU when none available (Count)
system.cpu.statFuBusy::FloatMisc                    0      0.00%     52.92% # attempts to use FU when none available (Count)
system.cpu.statFuBusy::FloatSqrt                    0      0.00%     52.92% # attempts to use FU when none available (Count)
system.cpu.statFuBusy::SimdAdd                      0      0.00%     52.92% # attempts to use FU when none available (Count)
system.cpu.statFuBusy::SimdAddAcc                   0      0.00%     52.92% # attempts to use FU when none available (Count)
system.cpu.statFuBusy::SimdAlu                     18      0.00%     52.92% # attempts to use FU when none available (Count)
system.cpu.statFuBusy::SimdCmp                      0      0.00%     52.92% # attempts to use FU when none available (Count)
system.cpu.statFuBusy::SimdCvt                     12      0.00%     52.92% # attempts to use FU when none available (Count)
system.cpu.statFuBusy::SimdMisc                     3      0.00%     52.92% # attempts to use FU when none available (Count)
system.cpu.statFuBusy::SimdMult                     0      0.00%     52.92% # attempts to use FU when none available (Count)
system.cpu.statFuBusy::SimdMultAcc                  0      0.00%     52.92% # attempts to use FU when none available (Count)
system.cpu.statFuBusy::SimdShift                    3      0.00%     52.92% # attempts to use FU when none available (Count)
system.cpu.statFuBusy::SimdShiftAcc                 0      0.00%     52.92% # attempts to use FU when none available (Count)
system.cpu.statFuBusy::SimdDiv                      0      0.00%     52.92% # attempts to use FU when none available (Count)
system.cpu.statFuBusy::SimdSqrt                     0      0.00%     52.92% # attempts to use FU when none available (Count)
system.cpu.statFuBusy::SimdFloatAdd                 0      0.00%     52.92% # attempts to use FU when none available (Count)
system.cpu.statFuBusy::SimdFloatAlu                 0      0.00%     52.92% # attempts to use FU when none available (Count)
system.cpu.statFuBusy::SimdFloatCmp                 0      0.00%     52.92% # attempts to use FU when none available (Count)
system.cpu.statFuBusy::SimdFloatCvt                 0      0.00%     52.92% # attempts to use FU when none available (Count)
system.cpu.statFuBusy::SimdFloatDiv                 0      0.00%     52.92% # attempts to use FU when none available (Count)
system.cpu.statFuBusy::SimdFloatMisc                0      0.00%     52.92% # attempts to use FU when none available (Count)
system.cpu.statFuBusy::SimdFloatMult                0      0.00%     52.92% # attempts to use FU when none available (Count)
system.cpu.statFuBusy::SimdFloatMultAcc             0      0.00%     52.92% # attempts to use FU when none available (Count)
system.cpu.statFuBusy::SimdFloatSqrt                0      0.00%     52.92% # attempts to use FU when none available (Count)
system.cpu.statFuBusy::SimdReduceAdd                0      0.00%     52.92% # attempts to use FU when none available (Count)
system.cpu.statFuBusy::SimdReduceAlu                0      0.00%     52.92% # attempts to use FU when none available (Count)
system.cpu.statFuBusy::SimdReduceCmp                0      0.00%     52.92% # attempts to use FU when none available (Count)
system.cpu.statFuBusy::SimdFloatReduceAdd            0      0.00%     52.92% # attempts to use FU when none available (Count)
system.cpu.statFuBusy::SimdFloatReduceCmp            0      0.00%     52.92% # attempts to use FU when none available (Count)
system.cpu.statFuBusy::SimdAes                      0      0.00%     52.92% # attempts to use FU when none available (Count)
system.cpu.statFuBusy::SimdAesMix                   0      0.00%     52.92% # attempts to use FU when none available (Count)
system.cpu.statFuBusy::SimdSha1Hash                 0      0.00%     52.92% # attempts to use FU when none available (Count)
system.cpu.statFuBusy::SimdSha1Hash2                0      0.00%     52.92% # attempts to use FU when none available (Count)
system.cpu.statFuBusy::SimdSha256Hash               0      0.00%     52.92% # attempts to use FU when none available (Count)
system.cpu.statFuBusy::SimdSha256Hash2              0      0.00%     52.92% # attempts to use FU when none available (Count)
system.cpu.statFuBusy::SimdShaSigma2                0      0.00%     52.92% # attempts to use FU when none available (Count)
system.cpu.statFuBusy::SimdShaSigma3                0      0.00%     52.92% # attempts to use FU when none available (Count)
system.cpu.statFuBusy::SimdPredAlu                  0      0.00%     52.92% # attempts to use FU when none available (Count)
system.cpu.statFuBusy::MemRead                8677828     30.79%     83.71% # attempts to use FU when none available (Count)
system.cpu.statFuBusy::MemWrite               4589896     16.29%    100.00% # attempts to use FU when none available (Count)
system.cpu.statFuBusy::FloatMemRead                34      0.00%    100.00% # attempts to use FU when none available (Count)
system.cpu.statFuBusy::FloatMemWrite               94      0.00%    100.00% # attempts to use FU when none available (Count)
system.cpu.statFuBusy::IprAccess                    0      0.00%    100.00% # attempts to use FU when none available (Count)
system.cpu.statFuBusy::InstPrefetch                 0      0.00%    100.00% # attempts to use FU when none available (Count)
system.cpu.statIssuedInstType_0::No_OpClass     19934543      1.72%      1.72% # Number of instructions issued per FU type, per thread (Count)
system.cpu.statIssuedInstType_0::IntAlu     893360099     76.92%     78.64% # Number of instructions issued per FU type, per thread (Count)
system.cpu.statIssuedInstType_0::IntMult        65369      0.01%     78.64% # Number of instructions issued per FU type, per thread (Count)
system.cpu.statIssuedInstType_0::IntDiv          1606      0.00%     78.64% # Number of instructions issued per FU type, per thread (Count)
system.cpu.statIssuedInstType_0::FloatAdd        43319      0.00%     78.65% # Number of instructions issued per FU type, per thread (Count)
system.cpu.statIssuedInstType_0::FloatCmp            0      0.00%     78.65% # Number of instructions issued per FU type, per thread (Count)
system.cpu.statIssuedInstType_0::FloatCvt           32      0.00%     78.65% # Number of instructions issued per FU type, per thread (Count)
system.cpu.statIssuedInstType_0::FloatMult            0      0.00%     78.65% # Number of instructions issued per FU type, per thread (Count)
system.cpu.statIssuedInstType_0::FloatMultAcc            0      0.00%     78.65% # Number of instructions issued per FU type, per thread (Count)
system.cpu.statIssuedInstType_0::FloatDiv            0      0.00%     78.65% # Number of instructions issued per FU type, per thread (Count)
system.cpu.statIssuedInstType_0::FloatMisc            0      0.00%     78.65% # Number of instructions issued per FU type, per thread (Count)
system.cpu.statIssuedInstType_0::FloatSqrt            0      0.00%     78.65% # Number of instructions issued per FU type, per thread (Count)
system.cpu.statIssuedInstType_0::SimdAdd          538      0.00%     78.65% # Number of instructions issued per FU type, per thread (Count)
system.cpu.statIssuedInstType_0::SimdAddAcc            0      0.00%     78.65% # Number of instructions issued per FU type, per thread (Count)
system.cpu.statIssuedInstType_0::SimdAlu       115201      0.01%     78.66% # Number of instructions issued per FU type, per thread (Count)
system.cpu.statIssuedInstType_0::SimdCmp            0      0.00%     78.66% # Number of instructions issued per FU type, per thread (Count)
system.cpu.statIssuedInstType_0::SimdCvt       115022      0.01%     78.67% # Number of instructions issued per FU type, per thread (Count)
system.cpu.statIssuedInstType_0::SimdMisc       271156      0.02%     78.69% # Number of instructions issued per FU type, per thread (Count)
system.cpu.statIssuedInstType_0::SimdMult            0      0.00%     78.69% # Number of instructions issued per FU type, per thread (Count)
system.cpu.statIssuedInstType_0::SimdMultAcc            0      0.00%     78.69% # Number of instructions issued per FU type, per thread (Count)
system.cpu.statIssuedInstType_0::SimdShift          473      0.00%     78.69% # Number of instructions issued per FU type, per thread (Count)
system.cpu.statIssuedInstType_0::SimdShiftAcc            0      0.00%     78.69% # Number of instructions issued per FU type, per thread (Count)
system.cpu.statIssuedInstType_0::SimdDiv            0      0.00%     78.69% # Number of instructions issued per FU type, per thread (Count)
system.cpu.statIssuedInstType_0::SimdSqrt            0      0.00%     78.69% # Number of instructions issued per FU type, per thread (Count)
system.cpu.statIssuedInstType_0::SimdFloatAdd            0      0.00%     78.69% # Number of instructions issued per FU type, per thread (Count)
system.cpu.statIssuedInstType_0::SimdFloatAlu            0      0.00%     78.69% # Number of instructions issued per FU type, per thread (Count)
system.cpu.statIssuedInstType_0::SimdFloatCmp            0      0.00%     78.69% # Number of instructions issued per FU type, per thread (Count)
system.cpu.statIssuedInstType_0::SimdFloatCvt            0      0.00%     78.69% # Number of instructions issued per FU type, per thread (Count)
system.cpu.statIssuedInstType_0::SimdFloatDiv            0      0.00%     78.69% # Number of instructions issued per FU type, per thread (Count)
system.cpu.statIssuedInstType_0::SimdFloatMisc            0      0.00%     78.69% # Number of instructions issued per FU type, per thread (Count)
system.cpu.statIssuedInstType_0::SimdFloatMult            0      0.00%     78.69% # Number of instructions issued per FU type, per thread (Count)
system.cpu.statIssuedInstType_0::SimdFloatMultAcc            0      0.00%     78.69% # Number of instructions issued per FU type, per thread (Count)
system.cpu.statIssuedInstType_0::SimdFloatSqrt            0      0.00%     78.69% # Number of instructions issued per FU type, per thread (Count)
system.cpu.statIssuedInstType_0::SimdReduceAdd            0      0.00%     78.69% # Number of instructions issued per FU type, per thread (Count)
system.cpu.statIssuedInstType_0::SimdReduceAlu            0      0.00%     78.69% # Number of instructions issued per FU type, per thread (Count)
system.cpu.statIssuedInstType_0::SimdReduceCmp            0      0.00%     78.69% # Number of instructions issued per FU type, per thread (Count)
system.cpu.statIssuedInstType_0::SimdFloatReduceAdd            0      0.00%     78.69% # Number of instructions issued per FU type, per thread (Count)
system.cpu.statIssuedInstType_0::SimdFloatReduceCmp            0      0.00%     78.69% # Number of instructions issued per FU type, per thread (Count)
system.cpu.statIssuedInstType_0::SimdAes            0      0.00%     78.69% # Number of instructions issued per FU type, per thread (Count)
system.cpu.statIssuedInstType_0::SimdAesMix            0      0.00%     78.69% # Number of instructions issued per FU type, per thread (Count)
system.cpu.statIssuedInstType_0::SimdSha1Hash            0      0.00%     78.69% # Number of instructions issued per FU type, per thread (Count)
system.cpu.statIssuedInstType_0::SimdSha1Hash2            0      0.00%     78.69% # Number of instructions issued per FU type, per thread (Count)
system.cpu.statIssuedInstType_0::SimdSha256Hash            0      0.00%     78.69% # Number of instructions issued per FU type, per thread (Count)
system.cpu.statIssuedInstType_0::SimdSha256Hash2            0      0.00%     78.69% # Number of instructions issued per FU type, per thread (Count)
system.cpu.statIssuedInstType_0::SimdShaSigma2            0      0.00%     78.69% # Number of instructions issued per FU type, per thread (Count)
system.cpu.statIssuedInstType_0::SimdShaSigma3            0      0.00%     78.69% # Number of instructions issued per FU type, per thread (Count)
system.cpu.statIssuedInstType_0::SimdPredAlu            0      0.00%     78.69% # Number of instructions issued per FU type, per thread (Count)
system.cpu.statIssuedInstType_0::MemRead    161927350     13.94%     92.63% # Number of instructions issued per FU type, per thread (Count)
system.cpu.statIssuedInstType_0::MemWrite     85359520      7.35%     99.98% # Number of instructions issued per FU type, per thread (Count)
system.cpu.statIssuedInstType_0::FloatMemRead        87537      0.01%     99.99% # Number of instructions issued per FU type, per thread (Count)
system.cpu.statIssuedInstType_0::FloatMemWrite       115208      0.01%    100.00% # Number of instructions issued per FU type, per thread (Count)
system.cpu.statIssuedInstType_0::IprAccess            0      0.00%    100.00% # Number of instructions issued per FU type, per thread (Count)
system.cpu.statIssuedInstType_0::InstPrefetch            0      0.00%    100.00% # Number of instructions issued per FU type, per thread (Count)
system.cpu.statIssuedInstType_0::total     1161396973                       # Number of instructions issued per FU type, per thread (Count)
system.cpu.issueRate                         1.873881                       # Inst issue rate ((Count/Cycle))
system.cpu.fuBusy                            28183106                       # FU busy when requested (Count)
system.cpu.fuBusyRate                        0.024267                       # FU busy rate (busy events/executed inst) ((Count/Count))
system.cpu.intInstQueueReads               2970348808                       # Number of integer instruction queue reads (Count)
system.cpu.intInstQueueWrites              2009595869                       # Number of integer instruction queue writes (Count)
system.cpu.intInstQueueWakeupAccesses      1133398873                       # Number of integer instruction queue wakeup accesses (Count)
system.cpu.fpInstQueueReads                   1696894                       # Number of floating instruction queue reads (Count)
system.cpu.fpInstQueueWrites                   857663                       # Number of floating instruction queue writes (Count)
system.cpu.fpInstQueueWakeupAccesses           847543                       # Number of floating instruction queue wakeup accesses (Count)
system.cpu.vecInstQueueReads                        0                       # Number of vector instruction queue reads (Count)
system.cpu.vecInstQueueWrites                       0                       # Number of vector instruction queue writes (Count)
system.cpu.vecInstQueueWakeupAccesses               0                       # Number of vector instruction queue wakeup accesses (Count)
system.cpu.intAluAccesses                  1168797035                       # Number of integer alu accesses (Count)
system.cpu.fpAluAccesses                       848501                       # Number of floating point alu accesses (Count)
system.cpu.vecAluAccesses                           0                       # Number of vector alu accesses (Count)
system.cpu.numInsts                        1141909756                       # Number of executed instructions (Count)
system.cpu.numLoadInsts                     158988815                       # Number of load instructions executed (Count)
system.cpu.numSquashedInsts                  19487217                       # Number of squashed instructions skipped in execute (Count)
system.cpu.numSwp                                   0                       # Number of swp insts executed (Count)
system.cpu.numNop                                   0                       # Number of nop insts executed (Count)
system.cpu.numRefs                          238841878                       # Number of memory reference insts executed (Count)
system.cpu.numBranches                       89660643                       # Number of branches executed (Count)
system.cpu.numStoreInsts                     79853063                       # Number of stores executed (Count)
system.cpu.numRate                           1.842439                       # Inst execution rate ((Count/Cycle))
system.cpu.timesIdled                           12205                       # Number of times that the entire CPU went into an idle state and unscheduled itself (Count)
system.cpu.idleCycles                          110109                       # Total number of cycles that the CPU has spent unscheduled due to idling (Cycle)
system.cpu.quiesceCycles                          297                       # Total number of cycles that CPU has spent quiesced or waiting for an interrupt (Cycle)
system.cpu.committedInsts                   419442540                       # Number of Instructions Simulated (Count)
system.cpu.committedOps                     829695577                       # Number of Ops (including micro ops) Simulated (Count)
system.cpu.cpi                               1.477631                       # CPI: Cycles Per Instruction ((Cycle/Count))
system.cpu.totalCpi                          1.477631                       # CPI: Total CPI of All Threads ((Cycle/Count))
system.cpu.ipc                               0.676759                       # IPC: Instructions Per Cycle ((Count/Cycle))
system.cpu.totalIpc                          0.676759                       # IPC: Total IPC of All Threads ((Count/Cycle))
system.cpu.intRegfileReads                 1133345782                       # Number of integer regfile reads (Count)
system.cpu.intRegfileWrites                 865120091                       # Number of integer regfile writes (Count)
system.cpu.fpRegfileReads                     1391335                       # Number of floating regfile reads (Count)
system.cpu.fpRegfileWrites                     675001                       # Number of floating regfile writes (Count)
system.cpu.ccRegfileReads                   394299973                       # number of cc regfile reads (Count)
system.cpu.ccRegfileWrites                  320795825                       # number of cc regfile writes (Count)
system.cpu.miscRegfileReads                 490487182                       # number of misc regfile reads (Count)
system.cpu.miscRegfileWrites                       18                       # number of misc regfile writes (Count)
system.cpu.MemDepUnit__0.insertedLoads      234259811                       # Number of loads inserted to the mem dependence unit. (Count)
system.cpu.MemDepUnit__0.insertedStores     120271379                       # Number of stores inserted to the mem dependence unit. (Count)
system.cpu.MemDepUnit__0.conflictingLoads    154414783                       # Number of conflicting loads. (Count)
system.cpu.MemDepUnit__0.conflictingStores     86524370                       # Number of conflicting stores. (Count)
system.cpu.MemDepUnit__1.insertedLoads              0                       # Number of loads inserted to the mem dependence unit. (Count)
system.cpu.MemDepUnit__1.insertedStores             0                       # Number of stores inserted to the mem dependence unit. (Count)
system.cpu.MemDepUnit__1.conflictingLoads            0                       # Number of conflicting loads. (Count)
system.cpu.MemDepUnit__1.conflictingStores            0                       # Number of conflicting stores. (Count)
system.cpu.MemDepUnit__2.insertedLoads              0                       # Number of loads inserted to the mem dependence unit. (Count)
system.cpu.MemDepUnit__2.insertedStores             0                       # Number of stores inserted to the mem dependence unit. (Count)
system.cpu.MemDepUnit__2.conflictingLoads            0                       # Number of conflicting loads. (Count)
system.cpu.MemDepUnit__2.conflictingStores            0                       # Number of conflicting stores. (Count)
system.cpu.MemDepUnit__3.insertedLoads              0                       # Number of loads inserted to the mem dependence unit. (Count)
system.cpu.MemDepUnit__3.insertedStores             0                       # Number of stores inserted to the mem dependence unit. (Count)
system.cpu.MemDepUnit__3.conflictingLoads            0                       # Number of conflicting loads. (Count)
system.cpu.MemDepUnit__3.conflictingStores            0                       # Number of conflicting stores. (Count)
system.cpu.branchPred.lookups               163525839                       # Number of BP lookups (Count)
system.cpu.branchPred.condPredicted         129725994                       # Number of conditional branches predicted (Count)
system.cpu.branchPred.condIncorrect           6075272                       # Number of conditional branches incorrect (Count)
system.cpu.branchPred.BTBLookups             83248213                       # Number of BTB lookups (Count)
system.cpu.branchPred.BTBUpdates              2138405                       # Number of BTB updates (Count)
system.cpu.branchPred.BTBHits                83235706                       # Number of BTB hits (Count)
system.cpu.branchPred.BTBHitRatio            0.999850                       # BTB Hit Ratio (Ratio)
system.cpu.branchPred.RASUsed                10689490                       # Number of times the RAS was used to get a target. (Count)
system.cpu.branchPred.RASIncorrect                125                       # Number of incorrect RAS predictions. (Count)
system.cpu.branchPred.indirectLookups         9496689                       # Number of indirect predictor lookups. (Count)
system.cpu.branchPred.indirectHits            9492512                       # Number of indirect target hits. (Count)
system.cpu.branchPred.indirectMisses             4177                       # Number of indirect misses. (Count)
system.cpu.branchPred.indirectMispredicted        28789                       # Number of mispredicted indirect branches. (Count)
system.cpu.commit.commitSquashedInsts       587707782                       # The number of squashed insts skipped by commit (Count)
system.cpu.commit.commitNonSpecStalls        25730496                       # The number of times commit has been forced to stall to communicate backwards (Count)
system.cpu.commit.branchMispredicts           6075704                       # The number of times a branch was mispredicted (Count)
system.cpu.commit.numCommittedDist::samples    542419613                       # Number of insts commited each cycle (Count)
system.cpu.commit.numCommittedDist::mean     1.529619                       # Number of insts commited each cycle (Count)
system.cpu.commit.numCommittedDist::stdev     2.531254                       # Number of insts commited each cycle (Count)
system.cpu.commit.numCommittedDist::underflows            0      0.00%      0.00% # Number of insts commited each cycle (Count)
system.cpu.commit.numCommittedDist::0       321252247     59.23%     59.23% # Number of insts commited each cycle (Count)
system.cpu.commit.numCommittedDist::1        69725000     12.85%     72.08% # Number of insts commited each cycle (Count)
system.cpu.commit.numCommittedDist::2        20503014      3.78%     75.86% # Number of insts commited each cycle (Count)
system.cpu.commit.numCommittedDist::3        45026832      8.30%     84.16% # Number of insts commited each cycle (Count)
system.cpu.commit.numCommittedDist::4        13781872      2.54%     86.70% # Number of insts commited each cycle (Count)
system.cpu.commit.numCommittedDist::5        10188666      1.88%     88.58% # Number of insts commited each cycle (Count)
system.cpu.commit.numCommittedDist::6         6940786      1.28%     89.86% # Number of insts commited each cycle (Count)
system.cpu.commit.numCommittedDist::7         3841049      0.71%     90.57% # Number of insts commited each cycle (Count)
system.cpu.commit.numCommittedDist::8        51160147      9.43%    100.00% # Number of insts commited each cycle (Count)
system.cpu.commit.numCommittedDist::overflows            0      0.00%    100.00% # Number of insts commited each cycle (Count)
system.cpu.commit.numCommittedDist::min_value            0                       # Number of insts commited each cycle (Count)
system.cpu.commit.numCommittedDist::max_value            8                       # Number of insts commited each cycle (Count)
system.cpu.commit.numCommittedDist::total    542419613                       # Number of insts commited each cycle (Count)
system.cpu.commit.instsCommitted            419442540                       # Number of instructions committed (Count)
system.cpu.commit.opsCommitted              829695577                       # Number of ops (including micro ops) committed (Count)
system.cpu.commit.memRefs                   207475750                       # Number of memory references committed (Count)
system.cpu.commit.loads                     137985516                       # Number of loads committed (Count)
system.cpu.commit.amos                              0                       # Number of atomic instructions committed (Count)
system.cpu.commit.membars                    17153652                       # Number of memory barriers committed (Count)
system.cpu.commit.branches                   79020315                       # Number of branches committed (Count)
system.cpu.commit.vectorInstructions                0                       # Number of committed Vector instructions. (Count)
system.cpu.commit.floating                     844379                       # Number of committed floating point instructions. (Count)
system.cpu.commit.integer                   801267284                       # Number of committed integer instructions. (Count)
system.cpu.commit.functionCalls               5386871                       # Number of function calls committed. (Count)
system.cpu.commit.committedInstType_0::No_OpClass      9831831      1.18%      1.18% # Class of committed instruction (Count)
system.cpu.commit.committedInstType_0::IntAlu    611783051     73.74%     74.92% # Class of committed instruction (Count)
system.cpu.commit.committedInstType_0::IntMult        59920      0.01%     74.93% # Class of committed instruction (Count)
system.cpu.commit.committedInstType_0::IntDiv         1485      0.00%     74.93% # Class of committed instruction (Count)
system.cpu.commit.committedInstType_0::FloatAdd        43060      0.01%     74.93% # Class of committed instruction (Count)
system.cpu.commit.committedInstType_0::FloatCmp            0      0.00%     74.93% # Class of committed instruction (Count)
system.cpu.commit.committedInstType_0::FloatCvt           32      0.00%     74.93% # Class of committed instruction (Count)
system.cpu.commit.committedInstType_0::FloatMult            0      0.00%     74.93% # Class of committed instruction (Count)
system.cpu.commit.committedInstType_0::FloatMultAcc            0      0.00%     74.93% # Class of committed instruction (Count)
system.cpu.commit.committedInstType_0::FloatDiv            0      0.00%     74.93% # Class of committed instruction (Count)
system.cpu.commit.committedInstType_0::FloatMisc            0      0.00%     74.93% # Class of committed instruction (Count)
system.cpu.commit.committedInstType_0::FloatSqrt            0      0.00%     74.93% # Class of committed instruction (Count)
system.cpu.commit.committedInstType_0::SimdAdd          384      0.00%     74.93% # Class of committed instruction (Count)
system.cpu.commit.committedInstType_0::SimdAddAcc            0      0.00%     74.93% # Class of committed instruction (Count)
system.cpu.commit.committedInstType_0::SimdAlu       114488      0.01%     74.95% # Class of committed instruction (Count)
system.cpu.commit.committedInstType_0::SimdCmp            0      0.00%     74.95% # Class of committed instruction (Count)
system.cpu.commit.committedInstType_0::SimdCvt       114520      0.01%     74.96% # Class of committed instruction (Count)
system.cpu.commit.committedInstType_0::SimdMisc       270867      0.03%     74.99% # Class of committed instruction (Count)
system.cpu.commit.committedInstType_0::SimdMult            0      0.00%     74.99% # Class of committed instruction (Count)
system.cpu.commit.committedInstType_0::SimdMultAcc            0      0.00%     74.99% # Class of committed instruction (Count)
system.cpu.commit.committedInstType_0::SimdShift          189      0.00%     74.99% # Class of committed instruction (Count)
system.cpu.commit.committedInstType_0::SimdShiftAcc            0      0.00%     74.99% # Class of committed instruction (Count)
system.cpu.commit.committedInstType_0::SimdDiv            0      0.00%     74.99% # Class of committed instruction (Count)
system.cpu.commit.committedInstType_0::SimdSqrt            0      0.00%     74.99% # Class of committed instruction (Count)
system.cpu.commit.committedInstType_0::SimdFloatAdd            0      0.00%     74.99% # Class of committed instruction (Count)
system.cpu.commit.committedInstType_0::SimdFloatAlu            0      0.00%     74.99% # Class of committed instruction (Count)
system.cpu.commit.committedInstType_0::SimdFloatCmp            0      0.00%     74.99% # Class of committed instruction (Count)
system.cpu.commit.committedInstType_0::SimdFloatCvt            0      0.00%     74.99% # Class of committed instruction (Count)
system.cpu.commit.committedInstType_0::SimdFloatDiv            0      0.00%     74.99% # Class of committed instruction (Count)
system.cpu.commit.committedInstType_0::SimdFloatMisc            0      0.00%     74.99% # Class of committed instruction (Count)
system.cpu.commit.committedInstType_0::SimdFloatMult            0      0.00%     74.99% # Class of committed instruction (Count)
system.cpu.commit.committedInstType_0::SimdFloatMultAcc            0      0.00%     74.99% # Class of committed instruction (Count)
system.cpu.commit.committedInstType_0::SimdFloatSqrt            0      0.00%     74.99% # Class of committed instruction (Count)
system.cpu.commit.committedInstType_0::SimdReduceAdd            0      0.00%     74.99% # Class of committed instruction (Count)
system.cpu.commit.committedInstType_0::SimdReduceAlu            0      0.00%     74.99% # Class of committed instruction (Count)
system.cpu.commit.committedInstType_0::SimdReduceCmp            0      0.00%     74.99% # Class of committed instruction (Count)
system.cpu.commit.committedInstType_0::SimdFloatReduceAdd            0      0.00%     74.99% # Class of committed instruction (Count)
system.cpu.commit.committedInstType_0::SimdFloatReduceCmp            0      0.00%     74.99% # Class of committed instruction (Count)
system.cpu.commit.committedInstType_0::SimdAes            0      0.00%     74.99% # Class of committed instruction (Count)
system.cpu.commit.committedInstType_0::SimdAesMix            0      0.00%     74.99% # Class of committed instruction (Count)
system.cpu.commit.committedInstType_0::SimdSha1Hash            0      0.00%     74.99% # Class of committed instruction (Count)
system.cpu.commit.committedInstType_0::SimdSha1Hash2            0      0.00%     74.99% # Class of committed instruction (Count)
system.cpu.commit.committedInstType_0::SimdSha256Hash            0      0.00%     74.99% # Class of committed instruction (Count)
system.cpu.commit.committedInstType_0::SimdSha256Hash2            0      0.00%     74.99% # Class of committed instruction (Count)
system.cpu.commit.committedInstType_0::SimdShaSigma2            0      0.00%     74.99% # Class of committed instruction (Count)
system.cpu.commit.committedInstType_0::SimdShaSigma3            0      0.00%     74.99% # Class of committed instruction (Count)
system.cpu.commit.committedInstType_0::SimdPredAlu            0      0.00%     74.99% # Class of committed instruction (Count)
system.cpu.commit.committedInstType_0::MemRead    137899243     16.62%     91.61% # Class of committed instruction (Count)
system.cpu.commit.committedInstType_0::MemWrite     69375440      8.36%     99.98% # Class of committed instruction (Count)
system.cpu.commit.committedInstType_0::FloatMemRead        86273      0.01%     99.99% # Class of committed instruction (Count)
system.cpu.commit.committedInstType_0::FloatMemWrite       114794      0.01%    100.00% # Class of committed instruction (Count)
system.cpu.commit.committedInstType_0::IprAccess            0      0.00%    100.00% # Class of committed instruction (Count)
system.cpu.commit.committedInstType_0::InstPrefetch            0      0.00%    100.00% # Class of committed instruction (Count)
system.cpu.commit.committedInstType_0::total    829695577                       # Class of committed instruction (Count)
system.cpu.commit.commitEligibleSamples      51160147                       # number cycles where commit BW limit reached (Cycle)
system.cpu.dcache.demandHits::cpu.data      206221082                       # number of demand (read+write) hits (Count)
system.cpu.dcache.demandHits::total         206221082                       # number of demand (read+write) hits (Count)
system.cpu.dcache.overallHits::cpu.data     206221082                       # number of overall hits (Count)
system.cpu.dcache.overallHits::total        206221082                       # number of overall hits (Count)
system.cpu.dcache.demandMisses::cpu.data         7178                       # number of demand (read+write) misses (Count)
system.cpu.dcache.demandMisses::total            7178                       # number of demand (read+write) misses (Count)
system.cpu.dcache.overallMisses::cpu.data         7178                       # number of overall misses (Count)
system.cpu.dcache.overallMisses::total           7178                       # number of overall misses (Count)
system.cpu.dcache.demandMissLatency::cpu.data    431428499                       # number of demand (read+write) miss ticks (Tick)
system.cpu.dcache.demandMissLatency::total    431428499                       # number of demand (read+write) miss ticks (Tick)
system.cpu.dcache.overallMissLatency::cpu.data    431428499                       # number of overall miss ticks (Tick)
system.cpu.dcache.overallMissLatency::total    431428499                       # number of overall miss ticks (Tick)
system.cpu.dcache.demandAccesses::cpu.data    206228260                       # number of demand (read+write) accesses (Count)
system.cpu.dcache.demandAccesses::total     206228260                       # number of demand (read+write) accesses (Count)
system.cpu.dcache.overallAccesses::cpu.data    206228260                       # number of overall (read+write) accesses (Count)
system.cpu.dcache.overallAccesses::total    206228260                       # number of overall (read+write) accesses (Count)
system.cpu.dcache.demandMissRate::cpu.data     0.000035                       # miss rate for demand accesses (Ratio)
system.cpu.dcache.demandMissRate::total      0.000035                       # miss rate for demand accesses (Ratio)
system.cpu.dcache.overallMissRate::cpu.data     0.000035                       # miss rate for overall accesses (Ratio)
system.cpu.dcache.overallMissRate::total     0.000035                       # miss rate for overall accesses (Ratio)
system.cpu.dcache.demandAvgMissLatency::cpu.data 60104.276818                       # average overall miss latency in ticks ((Tick/Count))
system.cpu.dcache.demandAvgMissLatency::total 60104.276818                       # average overall miss latency in ticks ((Tick/Count))
system.cpu.dcache.overallAvgMissLatency::cpu.data 60104.276818                       # average overall miss latency ((Tick/Count))
system.cpu.dcache.overallAvgMissLatency::total 60104.276818                       # average overall miss latency ((Tick/Count))
system.cpu.dcache.blockedCycles::no_mshrs        17892                       # number of cycles access was blocked (Cycle)
system.cpu.dcache.blockedCycles::no_targets            0                       # number of cycles access was blocked (Cycle)
system.cpu.dcache.blockedCauses::no_mshrs          440                       # number of times access was blocked (Count)
system.cpu.dcache.blockedCauses::no_targets            0                       # number of times access was blocked (Count)
system.cpu.dcache.avgBlocked::no_mshrs      40.663636                       # average number of cycles each access was blocked ((Cycle/Count))
system.cpu.dcache.avgBlocked::no_targets          nan                       # average number of cycles each access was blocked ((Cycle/Count))
system.cpu.dcache.writebacks::writebacks          362                       # number of writebacks (Count)
system.cpu.dcache.writebacks::total               362                       # number of writebacks (Count)
system.cpu.dcache.demandMshrHits::cpu.data         5094                       # number of demand (read+write) MSHR hits (Count)
system.cpu.dcache.demandMshrHits::total          5094                       # number of demand (read+write) MSHR hits (Count)
system.cpu.dcache.overallMshrHits::cpu.data         5094                       # number of overall MSHR hits (Count)
system.cpu.dcache.overallMshrHits::total         5094                       # number of overall MSHR hits (Count)
system.cpu.dcache.demandMshrMisses::cpu.data         2084                       # number of demand (read+write) MSHR misses (Count)
system.cpu.dcache.demandMshrMisses::total         2084                       # number of demand (read+write) MSHR misses (Count)
system.cpu.dcache.overallMshrMisses::cpu.data         2084                       # number of overall MSHR misses (Count)
system.cpu.dcache.overallMshrMisses::total         2084                       # number of overall MSHR misses (Count)
system.cpu.dcache.demandMshrMissLatency::cpu.data    141664999                       # number of demand (read+write) MSHR miss ticks (Tick)
system.cpu.dcache.demandMshrMissLatency::total    141664999                       # number of demand (read+write) MSHR miss ticks (Tick)
system.cpu.dcache.overallMshrMissLatency::cpu.data    141664999                       # number of overall MSHR miss ticks (Tick)
system.cpu.dcache.overallMshrMissLatency::total    141664999                       # number of overall MSHR miss ticks (Tick)
system.cpu.dcache.demandMshrMissRate::cpu.data     0.000010                       # mshr miss ratio for demand accesses (Ratio)
system.cpu.dcache.demandMshrMissRate::total     0.000010                       # mshr miss ratio for demand accesses (Ratio)
system.cpu.dcache.overallMshrMissRate::cpu.data     0.000010                       # mshr miss ratio for overall accesses (Ratio)
system.cpu.dcache.overallMshrMissRate::total     0.000010                       # mshr miss ratio for overall accesses (Ratio)
system.cpu.dcache.demandAvgMshrMissLatency::cpu.data 67977.446737                       # average overall mshr miss latency ((Tick/Count))
system.cpu.dcache.demandAvgMshrMissLatency::total 67977.446737                       # average overall mshr miss latency ((Tick/Count))
system.cpu.dcache.overallAvgMshrMissLatency::cpu.data 67977.446737                       # average overall mshr miss latency ((Tick/Count))
system.cpu.dcache.overallAvgMshrMissLatency::total 67977.446737                       # average overall mshr miss latency ((Tick/Count))
system.cpu.dcache.replacements                   1067                       # number of replacements (Count)
system.cpu.dcache.LockedRMWReadReq.hits::cpu.data      8576824                       # number of LockedRMWReadReq hits (Count)
system.cpu.dcache.LockedRMWReadReq.hits::total      8576824                       # number of LockedRMWReadReq hits (Count)
system.cpu.dcache.LockedRMWReadReq.misses::cpu.data            2                       # number of LockedRMWReadReq misses (Count)
system.cpu.dcache.LockedRMWReadReq.misses::total            2                       # number of LockedRMWReadReq misses (Count)
system.cpu.dcache.LockedRMWReadReq.missLatency::cpu.data       107500                       # number of LockedRMWReadReq miss ticks (Tick)
system.cpu.dcache.LockedRMWReadReq.missLatency::total       107500                       # number of LockedRMWReadReq miss ticks (Tick)
system.cpu.dcache.LockedRMWReadReq.accesses::cpu.data      8576826                       # number of LockedRMWReadReq accesses(hits+misses) (Count)
system.cpu.dcache.LockedRMWReadReq.accesses::total      8576826                       # number of LockedRMWReadReq accesses(hits+misses) (Count)
system.cpu.dcache.LockedRMWReadReq.missRate::cpu.data     0.000000                       # miss rate for LockedRMWReadReq accesses (Ratio)
system.cpu.dcache.LockedRMWReadReq.missRate::total     0.000000                       # miss rate for LockedRMWReadReq accesses (Ratio)
system.cpu.dcache.LockedRMWReadReq.avgMissLatency::cpu.data        53750                       # average LockedRMWReadReq miss latency ((Tick/Count))
system.cpu.dcache.LockedRMWReadReq.avgMissLatency::total        53750                       # average LockedRMWReadReq miss latency ((Tick/Count))
system.cpu.dcache.LockedRMWReadReq.mshrMisses::cpu.data            2                       # number of LockedRMWReadReq MSHR misses (Count)
system.cpu.dcache.LockedRMWReadReq.mshrMisses::total            2                       # number of LockedRMWReadReq MSHR misses (Count)
system.cpu.dcache.LockedRMWReadReq.mshrMissLatency::cpu.data  32163312000                       # number of LockedRMWReadReq MSHR miss ticks (Tick)
system.cpu.dcache.LockedRMWReadReq.mshrMissLatency::total  32163312000                       # number of LockedRMWReadReq MSHR miss ticks (Tick)
system.cpu.dcache.LockedRMWReadReq.mshrMissRate::cpu.data     0.000000                       # mshr miss rate for LockedRMWReadReq accesses (Ratio)
system.cpu.dcache.LockedRMWReadReq.mshrMissRate::total     0.000000                       # mshr miss rate for LockedRMWReadReq accesses (Ratio)
system.cpu.dcache.LockedRMWReadReq.avgMshrMissLatency::cpu.data  16081656000                       # average LockedRMWReadReq mshr miss latency ((Tick/Count))
system.cpu.dcache.LockedRMWReadReq.avgMshrMissLatency::total  16081656000                       # average LockedRMWReadReq mshr miss latency ((Tick/Count))
system.cpu.dcache.LockedRMWWriteReq.hits::cpu.data      8576826                       # number of LockedRMWWriteReq hits (Count)
system.cpu.dcache.LockedRMWWriteReq.hits::total      8576826                       # number of LockedRMWWriteReq hits (Count)
system.cpu.dcache.LockedRMWWriteReq.accesses::cpu.data      8576826                       # number of LockedRMWWriteReq accesses(hits+misses) (Count)
system.cpu.dcache.LockedRMWWriteReq.accesses::total      8576826                       # number of LockedRMWWriteReq accesses(hits+misses) (Count)
system.cpu.dcache.ReadReq.hits::cpu.data    145308292                       # number of ReadReq hits (Count)
system.cpu.dcache.ReadReq.hits::total       145308292                       # number of ReadReq hits (Count)
system.cpu.dcache.ReadReq.misses::cpu.data         6559                       # number of ReadReq misses (Count)
system.cpu.dcache.ReadReq.misses::total          6559                       # number of ReadReq misses (Count)
system.cpu.dcache.ReadReq.missLatency::cpu.data    387719000                       # number of ReadReq miss ticks (Tick)
system.cpu.dcache.ReadReq.missLatency::total    387719000                       # number of ReadReq miss ticks (Tick)
system.cpu.dcache.ReadReq.accesses::cpu.data    145314851                       # number of ReadReq accesses(hits+misses) (Count)
system.cpu.dcache.ReadReq.accesses::total    145314851                       # number of ReadReq accesses(hits+misses) (Count)
system.cpu.dcache.ReadReq.missRate::cpu.data     0.000045                       # miss rate for ReadReq accesses (Ratio)
system.cpu.dcache.ReadReq.missRate::total     0.000045                       # miss rate for ReadReq accesses (Ratio)
system.cpu.dcache.ReadReq.avgMissLatency::cpu.data 59112.517152                       # average ReadReq miss latency ((Tick/Count))
system.cpu.dcache.ReadReq.avgMissLatency::total 59112.517152                       # average ReadReq miss latency ((Tick/Count))
system.cpu.dcache.ReadReq.mshrHits::cpu.data         5091                       # number of ReadReq MSHR hits (Count)
system.cpu.dcache.ReadReq.mshrHits::total         5091                       # number of ReadReq MSHR hits (Count)
system.cpu.dcache.ReadReq.mshrMisses::cpu.data         1468                       # number of ReadReq MSHR misses (Count)
system.cpu.dcache.ReadReq.mshrMisses::total         1468                       # number of ReadReq MSHR misses (Count)
system.cpu.dcache.ReadReq.mshrMissLatency::cpu.data     98794000                       # number of ReadReq MSHR miss ticks (Tick)
system.cpu.dcache.ReadReq.mshrMissLatency::total     98794000                       # number of ReadReq MSHR miss ticks (Tick)
system.cpu.dcache.ReadReq.mshrMissRate::cpu.data     0.000010                       # mshr miss rate for ReadReq accesses (Ratio)
system.cpu.dcache.ReadReq.mshrMissRate::total     0.000010                       # mshr miss rate for ReadReq accesses (Ratio)
system.cpu.dcache.ReadReq.avgMshrMissLatency::cpu.data 67298.365123                       # average ReadReq mshr miss latency ((Tick/Count))
system.cpu.dcache.ReadReq.avgMshrMissLatency::total 67298.365123                       # average ReadReq mshr miss latency ((Tick/Count))
system.cpu.dcache.WriteReq.hits::cpu.data     60912790                       # number of WriteReq hits (Count)
system.cpu.dcache.WriteReq.hits::total       60912790                       # number of WriteReq hits (Count)
system.cpu.dcache.WriteReq.misses::cpu.data          619                       # number of WriteReq misses (Count)
system.cpu.dcache.WriteReq.misses::total          619                       # number of WriteReq misses (Count)
system.cpu.dcache.WriteReq.missLatency::cpu.data     43709499                       # number of WriteReq miss ticks (Tick)
system.cpu.dcache.WriteReq.missLatency::total     43709499                       # number of WriteReq miss ticks (Tick)
system.cpu.dcache.WriteReq.accesses::cpu.data     60913409                       # number of WriteReq accesses(hits+misses) (Count)
system.cpu.dcache.WriteReq.accesses::total     60913409                       # number of WriteReq accesses(hits+misses) (Count)
system.cpu.dcache.WriteReq.missRate::cpu.data     0.000010                       # miss rate for WriteReq accesses (Ratio)
system.cpu.dcache.WriteReq.missRate::total     0.000010                       # miss rate for WriteReq accesses (Ratio)
system.cpu.dcache.WriteReq.avgMissLatency::cpu.data 70613.084006                       # average WriteReq miss latency ((Tick/Count))
system.cpu.dcache.WriteReq.avgMissLatency::total 70613.084006                       # average WriteReq miss latency ((Tick/Count))
system.cpu.dcache.WriteReq.mshrHits::cpu.data            3                       # number of WriteReq MSHR hits (Count)
system.cpu.dcache.WriteReq.mshrHits::total            3                       # number of WriteReq MSHR hits (Count)
system.cpu.dcache.WriteReq.mshrMisses::cpu.data          616                       # number of WriteReq MSHR misses (Count)
system.cpu.dcache.WriteReq.mshrMisses::total          616                       # number of WriteReq MSHR misses (Count)
system.cpu.dcache.WriteReq.mshrMissLatency::cpu.data     42870999                       # number of WriteReq MSHR miss ticks (Tick)
system.cpu.dcache.WriteReq.mshrMissLatency::total     42870999                       # number of WriteReq MSHR miss ticks (Tick)
system.cpu.dcache.WriteReq.mshrMissRate::cpu.data     0.000010                       # mshr miss rate for WriteReq accesses (Ratio)
system.cpu.dcache.WriteReq.mshrMissRate::total     0.000010                       # mshr miss rate for WriteReq accesses (Ratio)
system.cpu.dcache.WriteReq.avgMshrMissLatency::cpu.data 69595.777597                       # average WriteReq mshr miss latency ((Tick/Count))
system.cpu.dcache.WriteReq.avgMshrMissLatency::total 69595.777597                       # average WriteReq mshr miss latency ((Tick/Count))
system.cpu.dcache.power_state.pwrStateResidencyTicks::UNDEFINED 309890902500                       # Cumulative time (in ticks) in various power states (Tick)
system.cpu.dcache.tags.tagsInUse          1018.834261                       # Average ticks per tags in use ((Tick/Count))
system.cpu.dcache.tags.totalRefs            223376818                       # Total number of references to valid blocks. (Count)
system.cpu.dcache.tags.sampledRefs               2086                       # Sample count of references to valid blocks. (Count)
system.cpu.dcache.tags.avgRefs           107083.805369                       # Average number of references to valid blocks. ((Count/Count))
system.cpu.dcache.tags.warmupTick              170500                       # The tick when the warmup percentage was hit. (Tick)
system.cpu.dcache.tags.occupancies::cpu.data  1018.834261                       # Average occupied blocks per tick, per requestor ((Count/Tick))
system.cpu.dcache.tags.avgOccs::cpu.data     0.994955                       # Average percentage of cache occupancy ((Ratio/Tick))
system.cpu.dcache.tags.avgOccs::total        0.994955                       # Average percentage of cache occupancy ((Ratio/Tick))
system.cpu.dcache.tags.occupanciesTaskId::1024         1019                       # Occupied blocks per task id (Count)
system.cpu.dcache.tags.ageTaskId_1024::0           14                       # Occupied blocks per task id, per block age (Count)
system.cpu.dcache.tags.ageTaskId_1024::4         1005                       # Occupied blocks per task id, per block age (Count)
system.cpu.dcache.tags.ratioOccsTaskId::1024     0.995117                       # Ratio of occupied blocks and all blocks, per task id (Ratio)
system.cpu.dcache.tags.tagAccesses          446765910                       # Number of tag accesses (Count)
system.cpu.dcache.tags.dataAccesses         446765910                       # Number of data accesses (Count)
system.cpu.dcache.tags.power_state.pwrStateResidencyTicks::UNDEFINED 309890902500                       # Cumulative time (in ticks) in various power states (Tick)
system.cpu.decode.idleCycles                 96080408                       # Number of cycles decode is idle (Cycle)
system.cpu.decode.blockedCycles             288975524                       # Number of cycles decode is blocked (Cycle)
system.cpu.decode.runCycles                 177467481                       # Number of cycles decode is running (Cycle)
system.cpu.decode.unblockCycles              46796044                       # Number of cycles decode is unblocking (Cycle)
system.cpu.decode.squashCycles               10351943                       # Number of cycles decode is squashing (Cycle)
system.cpu.decode.branchResolved             74506937                       # Number of times decode resolved a branch (Count)
system.cpu.decode.branchMispred                   771                       # Number of times decode detected a branch misprediction (Count)
system.cpu.decode.decodedInsts             1538570916                       # Number of instructions handled by decode (Count)
system.cpu.decode.squashedInsts                  3306                       # Number of squashed instructions handled by decode (Count)
system.cpu.fetch.icacheStallCycles          158386307                       # Number of cycles fetch is stalled on an Icache miss (Cycle)
system.cpu.fetch.insts                      873018338                       # Number of instructions fetch has processed (Count)
system.cpu.fetch.branches                   163525839                       # Number of branches that fetch encountered (Count)
system.cpu.fetch.predictedBranches          103417708                       # Number of branches that fetch has predicted taken (Count)
system.cpu.fetch.cycles                     450920045                       # Number of cycles fetch has run and was not squashing or blocked (Cycle)
system.cpu.fetch.squashCycles                20705394                       # Number of cycles fetch has spent squashing (Cycle)
system.cpu.fetch.miscStallCycles                 1229                       # Number of cycles fetch has spent waiting on interrupts, or bad addresses, or out of MSHRs (Cycle)
system.cpu.fetch.pendingTrapStallCycles         11122                       # Number of stall cycles due to pending traps (Cycle)
system.cpu.fetch.cacheLines                 149581922                       # Number of cache lines fetched (Count)
system.cpu.fetch.icacheSquashes               2726853                       # Number of outstanding Icache misses that were squashed (Count)
system.cpu.fetch.nisnDist::samples          619671400                       # Number of instructions fetched each cycle (Total) (Count)
system.cpu.fetch.nisnDist::mean              2.781646                       # Number of instructions fetched each cycle (Total) (Count)
system.cpu.fetch.nisnDist::stdev             3.420056                       # Number of instructions fetched each cycle (Total) (Count)
system.cpu.fetch.nisnDist::underflows               0      0.00%      0.00% # Number of instructions fetched each cycle (Total) (Count)
system.cpu.fetch.nisnDist::0                334291753     53.95%     53.95% # Number of instructions fetched each cycle (Total) (Count)
system.cpu.fetch.nisnDist::1                 18085663      2.92%     56.87% # Number of instructions fetched each cycle (Total) (Count)
system.cpu.fetch.nisnDist::2                 22428239      3.62%     60.48% # Number of instructions fetched each cycle (Total) (Count)
system.cpu.fetch.nisnDist::3                 14249889      2.30%     62.78% # Number of instructions fetched each cycle (Total) (Count)
system.cpu.fetch.nisnDist::4                 21213015      3.42%     66.21% # Number of instructions fetched each cycle (Total) (Count)
system.cpu.fetch.nisnDist::5                 20958439      3.38%     69.59% # Number of instructions fetched each cycle (Total) (Count)
system.cpu.fetch.nisnDist::6                 35407753      5.71%     75.30% # Number of instructions fetched each cycle (Total) (Count)
system.cpu.fetch.nisnDist::7                  8369360      1.35%     76.65% # Number of instructions fetched each cycle (Total) (Count)
system.cpu.fetch.nisnDist::8                144667289     23.35%    100.00% # Number of instructions fetched each cycle (Total) (Count)
system.cpu.fetch.nisnDist::overflows                0      0.00%    100.00% # Number of instructions fetched each cycle (Total) (Count)
system.cpu.fetch.nisnDist::min_value                0                       # Number of instructions fetched each cycle (Total) (Count)
system.cpu.fetch.nisnDist::max_value                8                       # Number of instructions fetched each cycle (Total) (Count)
system.cpu.fetch.nisnDist::total            619671400                       # Number of instructions fetched each cycle (Total) (Count)
system.cpu.fetch.branchRate                  0.263844                       # Number of branch fetches per cycle (Ratio)
system.cpu.fetch.rate                        1.408590                       # Number of inst fetches per cycle ((Count/Cycle))
system.cpu.icache.demandHits::cpu.inst      149464281                       # number of demand (read+write) hits (Count)
system.cpu.icache.demandHits::total         149464281                       # number of demand (read+write) hits (Count)
system.cpu.icache.overallHits::cpu.inst     149464281                       # number of overall hits (Count)
system.cpu.icache.overallHits::total        149464281                       # number of overall hits (Count)
system.cpu.icache.demandMisses::cpu.inst       117641                       # number of demand (read+write) misses (Count)
system.cpu.icache.demandMisses::total          117641                       # number of demand (read+write) misses (Count)
system.cpu.icache.overallMisses::cpu.inst       117641                       # number of overall misses (Count)
system.cpu.icache.overallMisses::total         117641                       # number of overall misses (Count)
system.cpu.icache.demandMissLatency::cpu.inst   1529975500                       # number of demand (read+write) miss ticks (Tick)
system.cpu.icache.demandMissLatency::total   1529975500                       # number of demand (read+write) miss ticks (Tick)
system.cpu.icache.overallMissLatency::cpu.inst   1529975500                       # number of overall miss ticks (Tick)
system.cpu.icache.overallMissLatency::total   1529975500                       # number of overall miss ticks (Tick)
system.cpu.icache.demandAccesses::cpu.inst    149581922                       # number of demand (read+write) accesses (Count)
system.cpu.icache.demandAccesses::total     149581922                       # number of demand (read+write) accesses (Count)
system.cpu.icache.overallAccesses::cpu.inst    149581922                       # number of overall (read+write) accesses (Count)
system.cpu.icache.overallAccesses::total    149581922                       # number of overall (read+write) accesses (Count)
system.cpu.icache.demandMissRate::cpu.inst     0.000786                       # miss rate for demand accesses (Ratio)
system.cpu.icache.demandMissRate::total      0.000786                       # miss rate for demand accesses (Ratio)
system.cpu.icache.overallMissRate::cpu.inst     0.000786                       # miss rate for overall accesses (Ratio)
system.cpu.icache.overallMissRate::total     0.000786                       # miss rate for overall accesses (Ratio)
system.cpu.icache.demandAvgMissLatency::cpu.inst 13005.461531                       # average overall miss latency in ticks ((Tick/Count))
system.cpu.icache.demandAvgMissLatency::total 13005.461531                       # average overall miss latency in ticks ((Tick/Count))
system.cpu.icache.overallAvgMissLatency::cpu.inst 13005.461531                       # average overall miss latency ((Tick/Count))
system.cpu.icache.overallAvgMissLatency::total 13005.461531                       # average overall miss latency ((Tick/Count))
system.cpu.icache.blockedCycles::no_mshrs          969                       # number of cycles access was blocked (Cycle)
system.cpu.icache.blockedCycles::no_targets            0                       # number of cycles access was blocked (Cycle)
system.cpu.icache.blockedCauses::no_mshrs            5                       # number of times access was blocked (Count)
system.cpu.icache.blockedCauses::no_targets            0                       # number of times access was blocked (Count)
system.cpu.icache.avgBlocked::no_mshrs     193.800000                       # average number of cycles each access was blocked ((Cycle/Count))
system.cpu.icache.avgBlocked::no_targets          nan                       # average number of cycles each access was blocked ((Cycle/Count))
system.cpu.icache.demandMshrHits::cpu.inst        14891                       # number of demand (read+write) MSHR hits (Count)
system.cpu.icache.demandMshrHits::total         14891                       # number of demand (read+write) MSHR hits (Count)
system.cpu.icache.overallMshrHits::cpu.inst        14891                       # number of overall MSHR hits (Count)
system.cpu.icache.overallMshrHits::total        14891                       # number of overall MSHR hits (Count)
system.cpu.icache.demandMshrMisses::cpu.inst       102750                       # number of demand (read+write) MSHR misses (Count)
system.cpu.icache.demandMshrMisses::total       102750                       # number of demand (read+write) MSHR misses (Count)
system.cpu.icache.overallMshrMisses::cpu.inst       102750                       # number of overall MSHR misses (Count)
system.cpu.icache.overallMshrMisses::total       102750                       # number of overall MSHR misses (Count)
system.cpu.icache.demandMshrMissLatency::cpu.inst   1320711500                       # number of demand (read+write) MSHR miss ticks (Tick)
system.cpu.icache.demandMshrMissLatency::total   1320711500                       # number of demand (read+write) MSHR miss ticks (Tick)
system.cpu.icache.overallMshrMissLatency::cpu.inst   1320711500                       # number of overall MSHR miss ticks (Tick)
system.cpu.icache.overallMshrMissLatency::total   1320711500                       # number of overall MSHR miss ticks (Tick)
system.cpu.icache.demandMshrMissRate::cpu.inst     0.000687                       # mshr miss ratio for demand accesses (Ratio)
system.cpu.icache.demandMshrMissRate::total     0.000687                       # mshr miss ratio for demand accesses (Ratio)
system.cpu.icache.overallMshrMissRate::cpu.inst     0.000687                       # mshr miss ratio for overall accesses (Ratio)
system.cpu.icache.overallMshrMissRate::total     0.000687                       # mshr miss ratio for overall accesses (Ratio)
system.cpu.icache.demandAvgMshrMissLatency::cpu.inst 12853.639903                       # average overall mshr miss latency ((Tick/Count))
system.cpu.icache.demandAvgMshrMissLatency::total 12853.639903                       # average overall mshr miss latency ((Tick/Count))
system.cpu.icache.overallAvgMshrMissLatency::cpu.inst 12853.639903                       # average overall mshr miss latency ((Tick/Count))
system.cpu.icache.overallAvgMshrMissLatency::total 12853.639903                       # average overall mshr miss latency ((Tick/Count))
system.cpu.icache.replacements                 102493                       # number of replacements (Count)
system.cpu.icache.ReadReq.hits::cpu.inst    149464281                       # number of ReadReq hits (Count)
system.cpu.icache.ReadReq.hits::total       149464281                       # number of ReadReq hits (Count)
system.cpu.icache.ReadReq.misses::cpu.inst       117641                       # number of ReadReq misses (Count)
system.cpu.icache.ReadReq.misses::total        117641                       # number of ReadReq misses (Count)
system.cpu.icache.ReadReq.missLatency::cpu.inst   1529975500                       # number of ReadReq miss ticks (Tick)
system.cpu.icache.ReadReq.missLatency::total   1529975500                       # number of ReadReq miss ticks (Tick)
system.cpu.icache.ReadReq.accesses::cpu.inst    149581922                       # number of ReadReq accesses(hits+misses) (Count)
system.cpu.icache.ReadReq.accesses::total    149581922                       # number of ReadReq accesses(hits+misses) (Count)
system.cpu.icache.ReadReq.missRate::cpu.inst     0.000786                       # miss rate for ReadReq accesses (Ratio)
system.cpu.icache.ReadReq.missRate::total     0.000786                       # miss rate for ReadReq accesses (Ratio)
system.cpu.icache.ReadReq.avgMissLatency::cpu.inst 13005.461531                       # average ReadReq miss latency ((Tick/Count))
system.cpu.icache.ReadReq.avgMissLatency::total 13005.461531                       # average ReadReq miss latency ((Tick/Count))
system.cpu.icache.ReadReq.mshrHits::cpu.inst        14891                       # number of ReadReq MSHR hits (Count)
system.cpu.icache.ReadReq.mshrHits::total        14891                       # number of ReadReq MSHR hits (Count)
system.cpu.icache.ReadReq.mshrMisses::cpu.inst       102750                       # number of ReadReq MSHR misses (Count)
system.cpu.icache.ReadReq.mshrMisses::total       102750                       # number of ReadReq MSHR misses (Count)
system.cpu.icache.ReadReq.mshrMissLatency::cpu.inst   1320711500                       # number of ReadReq MSHR miss ticks (Tick)
system.cpu.icache.ReadReq.mshrMissLatency::total   1320711500                       # number of ReadReq MSHR miss ticks (Tick)
system.cpu.icache.ReadReq.mshrMissRate::cpu.inst     0.000687                       # mshr miss rate for ReadReq accesses (Ratio)
system.cpu.icache.ReadReq.mshrMissRate::total     0.000687                       # mshr miss rate for ReadReq accesses (Ratio)
system.cpu.icache.ReadReq.avgMshrMissLatency::cpu.inst 12853.639903                       # average ReadReq mshr miss latency ((Tick/Count))
system.cpu.icache.ReadReq.avgMshrMissLatency::total 12853.639903                       # average ReadReq mshr miss latency ((Tick/Count))
system.cpu.icache.power_state.pwrStateResidencyTicks::UNDEFINED 309890902500                       # Cumulative time (in ticks) in various power states (Tick)
system.cpu.icache.tags.tagsInUse           255.988362                       # Average ticks per tags in use ((Tick/Count))
system.cpu.icache.tags.totalRefs            149567030                       # Total number of references to valid blocks. (Count)
system.cpu.icache.tags.sampledRefs             102749                       # Sample count of references to valid blocks. (Count)
system.cpu.icache.tags.avgRefs            1455.654362                       # Average number of references to valid blocks. ((Count/Count))
system.cpu.icache.tags.warmupTick               82000                       # The tick when the warmup percentage was hit. (Tick)
system.cpu.icache.tags.occupancies::cpu.inst   255.988362                       # Average occupied blocks per tick, per requestor ((Count/Tick))
system.cpu.icache.tags.avgOccs::cpu.inst     0.999955                       # Average percentage of cache occupancy ((Ratio/Tick))
system.cpu.icache.tags.avgOccs::total        0.999955                       # Average percentage of cache occupancy ((Ratio/Tick))
system.cpu.icache.tags.occupanciesTaskId::1024          256                       # Occupied blocks per task id (Count)
system.cpu.icache.tags.ageTaskId_1024::0          110                       # Occupied blocks per task id, per block age (Count)
system.cpu.icache.tags.ageTaskId_1024::4          146                       # Occupied blocks per task id, per block age (Count)
system.cpu.icache.tags.ratioOccsTaskId::1024            1                       # Ratio of occupied blocks and all blocks, per task id (Ratio)
system.cpu.icache.tags.tagAccesses          299266593                       # Number of tag accesses (Count)
system.cpu.icache.tags.dataAccesses         299266593                       # Number of data accesses (Count)
system.cpu.icache.tags.power_state.pwrStateResidencyTicks::UNDEFINED 309890902500                       # Cumulative time (in ticks) in various power states (Tick)
system.cpu.iew.idleCycles                           0                       # Number of cycles IEW is idle (Cycle)
system.cpu.iew.squashCycles                  10351943                       # Number of cycles IEW is squashing (Cycle)
system.cpu.iew.blockCycles                   93373514                       # Number of cycles IEW is blocking (Cycle)
system.cpu.iew.unblockCycles                 10303739                       # Number of cycles IEW is unblocking (Cycle)
system.cpu.iew.dispatchedInsts             1417943304                       # Number of instructions dispatched to IQ (Count)
system.cpu.iew.dispSquashedInsts                  405                       # Number of squashed instructions skipped by dispatch (Count)
system.cpu.iew.dispLoadInsts                234259811                       # Number of dispatched load instructions (Count)
system.cpu.iew.dispStoreInsts               120271379                       # Number of dispatched store instructions (Count)
system.cpu.iew.dispNonSpecInsts              17654503                       # Number of dispatched non-speculative instructions (Count)
system.cpu.iew.iqFullEvents                   4169043                       # Number of times the IQ has become full, causing a stall (Count)
system.cpu.iew.lsqFullEvents                     1843                       # Number of times the LSQ has become full, causing a stall (Count)
system.cpu.iew.memOrderViolationEvents        4262807                       # Number of memory order violations (Count)
system.cpu.iew.predictedTakenIncorrect        4748150                       # Number of branches that were predicted taken incorrectly (Count)
system.cpu.iew.predictedNotTakenIncorrect      2457073                       # Number of branches that were predicted not taken incorrectly (Count)
system.cpu.iew.branchMispredicts              7205223                       # Number of branch mispredicts detected at execute (Count)
system.cpu.iew.instsToCommit               1137176443                       # Cumulative count of insts sent to commit (Count)
system.cpu.iew.writebackCount              1134246416                       # Cumulative count of insts written-back (Count)
system.cpu.iew.producerInst                 797464758                       # Number of instructions producing a value (Count)
system.cpu.iew.consumerInst                1176522226                       # Number of instructions consuming a value (Count)
system.cpu.iew.wbRate                        1.830075                       # Insts written-back per cycle ((Count/Cycle))
system.cpu.iew.wbFanout                      0.677815                       # Average fanout of values written-back ((Count/Count))
system.cpu.interrupts.clk_domain.clock           8000                       # Clock period in ticks (Tick)
system.cpu.lsq0.forwLoads                     5109973                       # Number of loads that had data forwarded from stores (Count)
system.cpu.lsq0.squashedLoads                96274295                       # Number of loads squashed (Count)
system.cpu.lsq0.ignoredResponses                   42                       # Number of memory responses ignored because the instruction is squashed (Count)
system.cpu.lsq0.memOrderViolation             4262807                       # Number of memory ordering violations (Count)
system.cpu.lsq0.squashedStores               50781145                       # Number of stores squashed (Count)
system.cpu.lsq0.rescheduledLoads                    0                       # Number of loads that were rescheduled (Count)
system.cpu.lsq0.blockedByCache                    318                       # Number of times an access to memory failed due to the cache being blocked (Count)
system.cpu.lsq0.loadToUse::samples          137985516                       # Distribution of cycle latency between the first time a load is issued and its completion (Unspecified)
system.cpu.lsq0.loadToUse::mean              3.357174                       # Distribution of cycle latency between the first time a load is issued and its completion (Unspecified)
system.cpu.lsq0.loadToUse::stdev             1.049182                       # Distribution of cycle latency between the first time a load is issued and its completion (Unspecified)
system.cpu.lsq0.loadToUse::0-9              137979818    100.00%    100.00% # Distribution of cycle latency between the first time a load is issued and its completion (Unspecified)
system.cpu.lsq0.loadToUse::10-19                  104      0.00%    100.00% # Distribution of cycle latency between the first time a load is issued and its completion (Unspecified)
system.cpu.lsq0.loadToUse::20-29                  269      0.00%    100.00% # Distribution of cycle latency between the first time a load is issued and its completion (Unspecified)
system.cpu.lsq0.loadToUse::30-39                  104      0.00%    100.00% # Distribution of cycle latency between the first time a load is issued and its completion (Unspecified)
system.cpu.lsq0.loadToUse::40-49                   36      0.00%    100.00% # Distribution of cycle latency between the first time a load is issued and its completion (Unspecified)
system.cpu.lsq0.loadToUse::50-59                   55      0.00%    100.00% # Distribution of cycle latency between the first time a load is issued and its completion (Unspecified)
system.cpu.lsq0.loadToUse::60-69                   76      0.00%    100.00% # Distribution of cycle latency between the first time a load is issued and its completion (Unspecified)
system.cpu.lsq0.loadToUse::70-79                  228      0.00%    100.00% # Distribution of cycle latency between the first time a load is issued and its completion (Unspecified)
system.cpu.lsq0.loadToUse::80-89                  113      0.00%    100.00% # Distribution of cycle latency between the first time a load is issued and its completion (Unspecified)
system.cpu.lsq0.loadToUse::90-99                   67      0.00%    100.00% # Distribution of cycle latency between the first time a load is issued and its completion (Unspecified)
system.cpu.lsq0.loadToUse::100-109                 67      0.00%    100.00% # Distribution of cycle latency between the first time a load is issued and its completion (Unspecified)
system.cpu.lsq0.loadToUse::110-119                206      0.00%    100.00% # Distribution of cycle latency between the first time a load is issued and its completion (Unspecified)
system.cpu.lsq0.loadToUse::120-129                698      0.00%    100.00% # Distribution of cycle latency between the first time a load is issued and its completion (Unspecified)
system.cpu.lsq0.loadToUse::130-139               2460      0.00%    100.00% # Distribution of cycle latency between the first time a load is issued and its completion (Unspecified)
system.cpu.lsq0.loadToUse::140-149                348      0.00%    100.00% # Distribution of cycle latency between the first time a load is issued and its completion (Unspecified)
[...]
system.mem_ctrl.requestorReadAvgLat::cpu.inst     26299.44                       # Per-requestor read average memory access latency ((Tick/Count))
system.mem_ctrl.requestorReadAvgLat::cpu.data     26431.85                       # Per-requestor read average memory access latency ((Tick/Count))
system.mem_ctrl.dram.bytesRead::cpu.inst        91264                       # Number of bytes read from this memory (Byte)
system.mem_ctrl.dram.bytesRead::cpu.data       121152                       # Number of bytes read from this memory (Byte)
system.mem_ctrl.dram.bytesRead::total          212416                       # Number of bytes read from this memory (Byte)
system.mem_ctrl.dram.bytesInstRead::cpu.inst        91264                       # Number of instructions bytes read from this memory (Byte)
system.mem_ctrl.dram.bytesInstRead::total        91264                       # Number of instructions bytes read from this memory (Byte)
system.mem_ctrl.dram.numReads::cpu.inst          1426                       # Number of read requests responded to by this memory (Count)
system.mem_ctrl.dram.numReads::cpu.data          1893                       # Number of read requests responded to by this memory (Count)
system.mem_ctrl.dram.numReads::total             3319                       # Number of read requests responded to by this memory (Count)
system.mem_ctrl.dram.bwRead::cpu.inst          294504                       # Total read bandwidth from this memory ((Byte/Second))
system.mem_ctrl.dram.bwRead::cpu.data          390950                       # Total read bandwidth from this memory ((Byte/Second))
system.mem_ctrl.dram.bwRead::total             685454                       # Total read bandwidth from this memory ((Byte/Second))
system.mem_ctrl.dram.bwInstRead::cpu.inst       294504                       # Instruction read bandwidth from this memory ((Byte/Second))
system.mem_ctrl.dram.bwInstRead::total         294504                       # Instruction read bandwidth from this memory ((Byte/Second))
system.mem_ctrl.dram.bwTotal::cpu.inst         294504                       # Total bandwidth to/from this memory ((Byte/Second))
system.mem_ctrl.dram.bwTotal::cpu.data         390950                       # Total bandwidth to/from this memory ((Byte/Second))
system.mem_ctrl.dram.bwTotal::total            685454                       # Total bandwidth to/from this memory ((Byte/Second))
system.mem_ctrl.dram.readBursts                  3319                       # Number of DRAM read bursts (Count)
system.mem_ctrl.dram.writeBursts                    0                       # Number of DRAM write bursts (Count)
system.mem_ctrl.dram.perBankRdBursts::0           222                       # Per bank write bursts (Count)
system.mem_ctrl.dram.perBankRdBursts::1           223                       # Per bank write bursts (Count)
system.mem_ctrl.dram.perBankRdBursts::2           182                       # Per bank write bursts (Count)
system.mem_ctrl.dram.perBankRdBursts::3           182                       # Per bank write bursts (Count)
system.mem_ctrl.dram.perBankRdBursts::4           211                       # Per bank write bursts (Count)
system.mem_ctrl.dram.perBankRdBursts::5           245                       # Per bank write bursts (Count)
system.mem_ctrl.dram.perBankRdBursts::6           218                       # Per bank write bursts (Count)
system.mem_ctrl.dram.perBankRdBursts::7           281                       # Per bank write bursts (Count)
system.mem_ctrl.dram.perBankRdBursts::8           154                       # Per bank write bursts (Count)
system.mem_ctrl.dram.perBankRdBursts::9           175                       # Per bank write bursts (Count)
system.mem_ctrl.dram.perBankRdBursts::10          161                       # Per bank write bursts (Count)
system.mem_ctrl.dram.perBankRdBursts::11          203                       # Per bank write bursts (Count)
system.mem_ctrl.dram.perBankRdBursts::12          217                       # Per bank write bursts (Count)
system.mem_ctrl.dram.perBankRdBursts::13          232                       # Per bank write bursts (Count)
system.mem_ctrl.dram.perBankRdBursts::14          179                       # Per bank write bursts (Count)
system.mem_ctrl.dram.perBankRdBursts::15          234                       # Per bank write bursts (Count)
system.mem_ctrl.dram.perBankWrBursts::0             0                       # Per bank write bursts (Count)
system.mem_ctrl.dram.perBankWrBursts::1             0                       # Per bank write bursts (Count)
system.mem_ctrl.dram.perBankWrBursts::2             0                       # Per bank write bursts (Count)
system.mem_ctrl.dram.perBankWrBursts::3             0                       # Per bank write bursts (Count)
system.mem_ctrl.dram.perBankWrBursts::4             0                       # Per bank write bursts (Count)
system.mem_ctrl.dram.perBankWrBursts::5             0                       # Per bank write bursts (Count)
system.mem_ctrl.dram.perBankWrBursts::6             0                       # Per bank write bursts (Count)
system.mem_ctrl.dram.perBankWrBursts::7             0                       # Per bank write bursts (Count)
system.mem_ctrl.dram.perBankWrBursts::8             0                       # Per bank write bursts (Count)
system.mem_ctrl.dram.perBankWrBursts::9             0                       # Per bank write bursts (Count)
system.mem_ctrl.dram.perBankWrBursts::10            0                       # Per bank write bursts (Count)
system.mem_ctrl.dram.perBankWrBursts::11            0                       # Per bank write bursts (Count)
system.mem_ctrl.dram.perBankWrBursts::12            0                       # Per bank write bursts (Count)
system.mem_ctrl.dram.perBankWrBursts::13            0                       # Per bank write bursts (Count)
system.mem_ctrl.dram.perBankWrBursts::14            0                       # Per bank write bursts (Count)
system.mem_ctrl.dram.perBankWrBursts::15            0                       # Per bank write bursts (Count)
system.mem_ctrl.dram.totQLat                 25307250                       # Total ticks spent queuing (Tick)
system.mem_ctrl.dram.totBusLat               16595000                       # Total ticks spent in databus transfers (Tick)
system.mem_ctrl.dram.totMemAccLat            87538500                       # Total ticks spent from burst creation until serviced by the DRAM (Tick)
system.mem_ctrl.dram.avgQLat                  7624.96                       # Average queueing delay per DRAM burst ((Tick/Count))
system.mem_ctrl.dram.avgBusLat                5000.00                       # Average bus latency per DRAM burst ((Tick/Count))
system.mem_ctrl.dram.avgMemAccLat            26374.96                       # Average memory access latency per DRAM burst ((Tick/Count))
system.mem_ctrl.dram.readRowHits                 2716                       # Number of row buffer hits during reads (Count)
system.mem_ctrl.dram.writeRowHits                   0                       # Number of row buffer hits during writes (Count)
system.mem_ctrl.dram.readRowHitRate             81.83                       # Row buffer hit rate for reads (Ratio)
system.mem_ctrl.dram.writeRowHitRate              nan                       # Row buffer hit rate for writes (Ratio)
system.mem_ctrl.dram.bytesPerActivate::samples          592                       # Bytes accessed per row activation (Byte)
system.mem_ctrl.dram.bytesPerActivate::mean   353.513514                       # Bytes accessed per row activation (Byte)
system.mem_ctrl.dram.bytesPerActivate::gmean   213.267227                       # Bytes accessed per row activation (Byte)
system.mem_ctrl.dram.bytesPerActivate::stdev   343.569685                       # Bytes accessed per row activation (Byte)
system.mem_ctrl.dram.bytesPerActivate::0-127          184     31.08%     31.08% # Bytes accessed per row activation (Byte)
system.mem_ctrl.dram.bytesPerActivate::128-255          138     23.31%     54.39% # Bytes accessed per row activation (Byte)
system.mem_ctrl.dram.bytesPerActivate::256-383           71     11.99%     66.39% # Bytes accessed per row activation (Byte)
system.mem_ctrl.dram.bytesPerActivate::384-511           35      5.91%     72.30% # Bytes accessed per row activation (Byte)
system.mem_ctrl.dram.bytesPerActivate::512-639           31      5.24%     77.53% # Bytes accessed per row activation (Byte)
system.mem_ctrl.dram.bytesPerActivate::640-767           19      3.21%     80.74% # Bytes accessed per row activation (Byte)
system.mem_ctrl.dram.bytesPerActivate::768-895           18      3.04%     83.78% # Bytes accessed per row activation (Byte)
system.mem_ctrl.dram.bytesPerActivate::896-1023           14      2.36%     86.15% # Bytes accessed per row activation (Byte)
system.mem_ctrl.dram.bytesPerActivate::1024-1151           82     13.85%    100.00% # Bytes accessed per row activation (Byte)
system.mem_ctrl.dram.bytesPerActivate::total          592                       # Bytes accessed per row activation (Byte)
system.mem_ctrl.dram.bytesRead                 212416                       # Total bytes read (Byte)
system.mem_ctrl.dram.bytesWritten                   0                       # Total bytes written (Byte)
system.mem_ctrl.dram.avgRdBW                 0.685454                       # Average DRAM read bandwidth in MiBytes/s ((Byte/Second))
system.mem_ctrl.dram.avgWrBW                        0                       # Average DRAM write bandwidth in MiBytes/s ((Byte/Second))
system.mem_ctrl.dram.peakBW                  12800.00                       # Theoretical peak bandwidth in MiByte/s ((Byte/Second))
system.mem_ctrl.dram.busUtil                     0.01                       # Data bus utilization in percentage (Ratio)
system.mem_ctrl.dram.busUtilRead                 0.01                       # Data bus utilization in percentage for reads (Ratio)
system.mem_ctrl.dram.busUtilWrite                0.00                       # Data bus utilization in percentage for writes (Ratio)
system.mem_ctrl.dram.pageHitRate                81.83                       # Row buffer hit rate, read and write combined (Ratio)
system.mem_ctrl.dram.power_state.pwrStateResidencyTicks::UNDEFINED 309890902500                       # Cumulative time (in ticks) in various power states (Tick)
system.mem_ctrl.dram.rank0.actEnergy          2598960                       # Energy for activate commands per rank (pJ) (Joule)
system.mem_ctrl.dram.rank0.preEnergy          1354815                       # Energy for precharge commands per rank (pJ) (Joule)
system.mem_ctrl.dram.rank0.readEnergy        12594960                       # Energy for read commands per rank (pJ) (Joule)
system.mem_ctrl.dram.rank0.writeEnergy              0                       # Energy for write commands per rank (pJ) (Joule)
system.mem_ctrl.dram.rank0.refreshEnergy 24462057360.000004                       # Energy for refresh commands per rank (pJ) (Joule)
system.mem_ctrl.dram.rank0.actBackEnergy   4551703650                       # Energy for active background per rank (pJ) (Joule)
system.mem_ctrl.dram.rank0.preBackEnergy 115165092960                       # Energy for precharge background per rank (pJ) (Joule)
system.mem_ctrl.dram.rank0.actPowerDownEnergy            0                       # Energy for active power-down per rank (pJ) (Joule)
system.mem_ctrl.dram.rank0.prePowerDownEnergy            0                       # Energy for precharge power-down per rank (pJ) (Joule)
system.mem_ctrl.dram.rank0.selfRefreshEnergy            0                       # Energy for self refresh per rank (pJ) (Joule)
system.mem_ctrl.dram.rank0.totalEnergy   144195402705                       # Total energy per rank (pJ) (Joule)
system.mem_ctrl.dram.rank0.averagePower    465.310216                       # Core power per rank (mW) (Watt)
system.mem_ctrl.dram.rank0.totalIdleTime            0                       # Total Idle time Per DRAM Rank (Tick)
system.mem_ctrl.dram.rank0.pwrStateTime::IDLE 299361371750                       # Time in different power states (Tick)
system.mem_ctrl.dram.rank0.pwrStateTime::REF  10347740000                       # Time in different power states (Tick)
system.mem_ctrl.dram.rank0.pwrStateTime::SREF            0                       # Time in different power states (Tick)
system.mem_ctrl.dram.rank0.pwrStateTime::PRE_PDN            0                       # Time in different power states (Tick)
system.mem_ctrl.dram.rank0.pwrStateTime::ACT    181790750                       # Time in different power states (Tick)
system.mem_ctrl.dram.rank0.pwrStateTime::ACT_PDN            0                       # Time in different power states (Tick)
system.mem_ctrl.dram.rank1.actEnergy          1706460                       # Energy for activate commands per rank (pJ) (Joule)
system.mem_ctrl.dram.rank1.preEnergy           891825                       # Energy for precharge commands per rank (pJ) (Joule)
system.mem_ctrl.dram.rank1.readEnergy        11102700                       # Energy for read commands per rank (pJ) (Joule)
system.mem_ctrl.dram.rank1.writeEnergy              0                       # Energy for write commands per rank (pJ) (Joule)
system.mem_ctrl.dram.rank1.refreshEnergy 24462057360.000004                       # Energy for refresh commands per rank (pJ) (Joule)
system.mem_ctrl.dram.rank1.actBackEnergy   4546516080                       # Energy for active background per rank (pJ) (Joule)
system.mem_ctrl.dram.rank1.preBackEnergy 115169461440                       # Energy for precharge background per rank (pJ) (Joule)
system.mem_ctrl.dram.rank1.actPowerDownEnergy            0                       # Energy for active power-down per rank (pJ) (Joule)
system.mem_ctrl.dram.rank1.prePowerDownEnergy            0                       # Energy for precharge power-down per rank (pJ) (Joule)
system.mem_ctrl.dram.rank1.selfRefreshEnergy            0                       # Energy for self refresh per rank (pJ) (Joule)
system.mem_ctrl.dram.rank1.totalEnergy   144191735865                       # Total energy per rank (pJ) (Joule)
system.mem_ctrl.dram.rank1.averagePower    465.298383                       # Core power per rank (mW) (Watt)
system.mem_ctrl.dram.rank1.totalIdleTime            0                       # Total Idle time Per DRAM Rank (Tick)
system.mem_ctrl.dram.rank1.pwrStateTime::IDLE 299372860750                       # Time in different power states (Tick)
system.mem_ctrl.dram.rank1.pwrStateTime::REF  10347740000                       # Time in different power states (Tick)
system.mem_ctrl.dram.rank1.pwrStateTime::SREF            0                       # Time in different power states (Tick)
system.mem_ctrl.dram.rank1.pwrStateTime::PRE_PDN            0                       # Time in different power states (Tick)
system.mem_ctrl.dram.rank1.pwrStateTime::ACT    170301750                       # Time in different power states (Tick)
system.mem_ctrl.dram.rank1.pwrStateTime::ACT_PDN            0                       # Time in different power states (Tick)
system.mem_ctrl.power_state.pwrStateResidencyTicks::UNDEFINED 309890902500                       # Cumulative time (in ticks) in various power states (Tick)
system.membus.transDist::ReadResp                2725                       # Transaction distribution (Count)
system.membus.transDist::ReadExReq                594                       # Transaction distribution (Count)
system.membus.transDist::ReadExResp               594                       # Transaction distribution (Count)
system.membus.transDist::ReadSharedReq           2725                       # Transaction distribution (Count)
system.membus.pktCount_system.l2cache.mem_side_port::system.mem_ctrl.port         6638                       # Packet count per connected requestor and responder (Count)
system.membus.pktCount_system.l2cache.mem_side_port::total         6638                       # Packet count per connected requestor and responder (Count)
system.membus.pktCount::total                    6638                       # Packet count per connected requestor and responder (Count)
system.membus.pktSize_system.l2cache.mem_side_port::system.mem_ctrl.port       212416                       # Cumulative packet size per connected requestor and responder (Byte)
system.membus.pktSize_system.l2cache.mem_side_port::total       212416                       # Cumulative packet size per connected requestor and responder (Byte)
system.membus.pktSize::total                   212416                       # Cumulative packet size per connected requestor and responder (Byte)
system.membus.snoops                                0                       # Total snoops (Count)
system.membus.snoopTraffic                          0                       # Total snoop traffic (Byte)
system.membus.snoopFanout::samples               3319                       # Request fanout histogram (Count)
system.membus.snoopFanout::mean                     0                       # Request fanout histogram (Count)
system.membus.snoopFanout::stdev                    0                       # Request fanout histogram (Count)
system.membus.snoopFanout::underflows               0      0.00%      0.00% # Request fanout histogram (Count)
system.membus.snoopFanout::0                     3319    100.00%    100.00% # Request fanout histogram (Count)
system.membus.snoopFanout::1                        0      0.00%    100.00% # Request fanout histogram (Count)
system.membus.snoopFanout::overflows                0      0.00%    100.00% # Request fanout histogram (Count)
system.membus.snoopFanout::min_value                0                       # Request fanout histogram (Count)
system.membus.snoopFanout::max_value                0                       # Request fanout histogram (Count)
system.membus.snoopFanout::total                 3319                       # Request fanout histogram (Count)
system.membus.power_state.pwrStateResidencyTicks::UNDEFINED 309890902500                       # Cumulative time (in ticks) in various power states (Tick)
system.membus.reqLayer2.occupancy             1659500                       # Layer occupancy (ticks) (Tick)
system.membus.reqLayer2.utilization               0.0                       # Layer utilization (Ratio)
system.membus.respLayer0.occupancy            9025000                       # Layer occupancy (ticks) (Tick)
system.membus.respLayer0.utilization              0.0                       # Layer utilization (Ratio)
system.membus.snoop_filter.totRequests           3319                       # Total number of requests made to the snoop filter. (Count)
system.membus.snoop_filter.hitSingleRequests            0                       # Number of requests hitting in the snoop filter with a single holder of the requested data. (Count)
system.membus.snoop_filter.hitMultiRequests            0                       # Number of requests hitting in the snoop filter with multiple (>1) holders of the requested data. (Count)
system.membus.snoop_filter.totSnoops                0                       # Total number of snoops made to the snoop filter. (Count)
system.membus.snoop_filter.hitSingleSnoops            0                       # Number of snoops hitting in the snoop filter with a single holder of the requested data. (Count)
system.membus.snoop_filter.hitMultiSnoops            0                       # Number of snoops hitting in the snoop filter with multiple (>1) holders of the requested data. (Count)
system.workload.inst.arm                            0                       # number of arm instructions executed (Count)
system.workload.inst.quiesce                        0                       # number of quiesce instructions executed (Count)

---------- End Simulation Statistics   ----------
