
---------- Begin Simulation Statistics ----------
simSeconds                                   0.341393                       # Number of seconds simulated (Second)
simTicks                                 341392781000                       # Number of ticks simulated (Tick)
finalTick                                341392781000                       # Number of ticks from beginning of simulation (restored from checkpoints and never reset) (Tick)
simFreq                                  1000000000000                       # The number of ticks per simulated second ((Tick/Second))
hostSeconds                                  14669.04                       # Real time elapsed on the host (Second)
hostTickRate                                 23273019                       # The number of ticks simulated per host second (ticks/s) ((Tick/Second))
hostMemory                                    1204348                       # Number of bytes of host memory used (Byte)
simInsts                                    685048767                       # Number of instructions simulated (Count)
simOps                                     1324124270                       # Number of ops (including micro ops) simulated (Count)
hostInstRate                                    46700                       # Simulator instruction rate (inst/s) ((Count/Second))
hostOpRate                                      90267                       # Simulator op (including micro ops) rate (op/s) ((Count/Second))
system.clk_domain.clock                           500                       # Clock period in ticks (Tick)
system.clk_domain.voltage_domain.voltage            1                       # Voltage in Volts (Volt)
system.cpu.numCycles                        561981869                       # Number of cpu cycles simulated (Cycle)
system.cpu.numWorkItemsStarted                      0                       # Number of work items this cpu started (Count)
system.cpu.numWorkItemsCompleted                    0                       # Number of work items this cpu completed (Count)
system.cpu.instsAdded                      1443568934                       # Number of instructions added to the IQ (excludes non-spec) (Count)
system.cpu.nonSpecInstsAdded                       19                       # Number of non-speculative instructions added to the IQ (Count)
system.cpu.instsIssued                     1426242766                       # Number of instructions issued (Count)
system.cpu.squashedInstsIssued                  28780                       # Number of squashed instructions issued (Count)
system.cpu.squashedInstsExamined            119444677                       # Number of squashed instructions iterated over during squash; mainly for profiling (Count)
system.cpu.squashedOperandsExamined         119435231                       # Number of squashed operands that are examined and possibly removed from graph (Count)
system.cpu.squashedNonSpecRemoved                   1                       # Number of squashed non-spec instructions that were removed (Count)
system.cpu.numIssuedDist::samples           560560228                       # Number of insts issued each cycle (Count)
system.cpu.numIssuedDist::mean               2.544317                       # Number of insts issued each cycle (Count)
system.cpu.numIssuedDist::stdev              1.810824                       # Number of insts issued each cycle (Count)
system.cpu.numIssuedDist::underflows                0      0.00%      0.00% # Number of insts issued each cycle (Count)
system.cpu.numIssuedDist::0                 105447549     18.81%     18.81% # Number of insts issued each cycle (Count)
system.cpu.numIssuedDist::1                  73171307     13.05%     31.86% # Number of insts issued each cycle (Count)
system.cpu.numIssuedDist::2                  92332886     16.47%     48.34% # Number of insts issued each cycle (Count)
system.cpu.numIssuedDist::3                 113314360     20.21%     68.55% # Number of insts issued each cycle (Count)
system.cpu.numIssuedDist::4                  86249167     15.39%     83.94% # Number of insts issued each cycle (Count)
system.cpu.numIssuedDist::5                  60638579     10.82%     94.75% # Number of insts issued each cycle (Count)
system.cpu.numIssuedDist::6                  25658030      4.58%     99.33% # Number of insts issued each cycle (Count)
system.cpu.numIssuedDist::7                   3661936      0.65%     99.98% # Number of insts issued each cycle (Count)
system.cpu.numIssuedDist::8                     86414      0.02%    100.00% # Number of insts issued each cycle (Count)
system.cpu.numIssuedDist::overflows                 0      0.00%    100.00% # Number of insts issued each cycle (Count)
system.cpu.numIssuedDist::min_value                 0                       # Number of insts issued each cycle (Count)
system.cpu.numIssuedDist::max_value                 8                       # Number of insts issued each cycle (Count)
system.cpu.numIssuedDist::total             560560228                       # Number of insts issued each cycle (Count)
system.cpu.statFuBusy::No_OpClass                   0      0.00%      0.00% # attempts to use FU when none available (Count)
system.cpu.statFuBusy::IntAlu                 1754555     81.06%     81.06% # attempts to use FU when none available (Count)
system.cpu.statFuBusy::IntMult                      0      0.00%     81.06% # attempts to use FU when none available (Count)
system.cpu.statFuBusy::IntDiv                       0      0.00%     81.06% # attempts to use FU when none available (Count)
system.cpu.statFuBusy::FloatAdd                     0      0.00%     81.06% # attempts to use FU when none available (Count)
system.cpu.statFuBusy::FloatCmp                     0      0.00%     81.06% # attempts to use FU when none available (Count)
system.cpu.statFuBusy::FloatCvt                     0      0.00%     81.06% # attempts to use FU when none available (Count)
system.cpu.statFuBusy::FloatMult                    0      0.00%     81.06% # attempts to use FU when none available (Count)
system.cpu.statFuBusy::FloatMultAcc                 0      0.00%     81.06% # attempts to use FU when none available (Count)
system.cpu.statFuBusy::FloatDiv                     0      0.00%     81.06% # attempts to use FU when none available (Count)
system.cpu.statFuBusy::FloatMisc                    0      0.00%     81.06% # attempts to use FU when none available (Count)
system.cpu.statFuBusy::FloatSqrt                    0      0.00%     81.06% # attempts to use FU when none available (Count)
system.cpu.statFuBusy::SimdAdd                      0      0.00%     81.06% # attempts to use FU when none available (Count)
system.cpu.statFuBusy::SimdAddAcc                   0      0.00%     81.06% # attempts to use FU when none available (Count)
system.cpu.statFuBusy::SimdAlu                     10      0.00%     81.06% # attempts to use FU when none available (Count)
system.cpu.statFuBusy::SimdCmp                      0      0.00%     81.06% # attempts to use FU when none available (Count)
system.cpu.statFuBusy::SimdCvt                      9      0.00%     81.06% # attempts to use FU when none available (Count)
system.cpu.statFuBusy::SimdMisc                     3      0.00%     81.06% # attempts to use FU when none available (Count)
system.cpu.statFuBusy::SimdMult                     0      0.00%     81.06% # attempts to use FU when none available (Count)
system.cpu.statFuBusy::SimdMultAcc                  0      0.00%     81.06% # attempts to use FU when none available (Count)
system.cpu.statFuBusy::SimdShift                    0      0.00%     81.06% # attempts to use FU when none available (Count)
system.cpu.statFuBusy::SimdShiftAcc                 0      0.00%     81.06% # attempts to use FU when none available (Count)
system.cpu.statFuBusy::SimdDiv                      0      0.00%     81.06% # attempts to use FU when none available (Count)
system.cpu.statFuBusy::SimdSqrt                     0      0.00%     81.06% # attempts to use FU when none available (Count)
system.cpu.statFuBusy::SimdFloatAdd                 0      0.00%     81.06% # attempts to use FU when none available (Count)
system.cpu.statFuBusy::SimdFloatAlu                 0      0.00%     81.06% # attempts to use FU when none available (Count)
system.cpu.statFuBusy::SimdFloatCmp                 0      0.00%     81.06% # attempts to use FU when none available (Count)
system.cpu.statFuBusy::SimdFloatCvt                 0      0.00%     81.06% # attempts to use FU when none available (Count)
system.cpu.statFuBusy::SimdFloatDiv                 0      0.00%     81.06% # attempts to use FU when none available (Count)
system.cpu.statFuBusy::SimdFloatMisc                0      0.00%     81.06% # attempts to use FU when none available (Count)
system.cpu.statFuBusy::SimdFloatMult                0      0.00%     81.06% # attempts to use FU when none available (Count)
system.cpu.statFuBusy::SimdFloatMultAcc             0      0.00%     81.06% # attempts to use FU when none available (Count)
system.cpu.statFuBusy::SimdFloatSqrt                0      0.00%     81.06% # attempts to use FU when none available (Count)
system.cpu.statFuBusy::SimdReduceAdd                0      0.00%     81.06% # attempts to use FU when none available (Count)
system.cpu.statFuBusy::SimdReduceAlu                0      0.00%     81.06% # attempts to use FU when none available (Count)
system.cpu.statFuBusy::SimdReduceCmp                0      0.00%     81.06% # attempts to use FU when none available (Count)
system.cpu.statFuBusy::SimdFloatReduceAdd            0      0.00%     81.06% # attempts to use FU when none available (Count)
system.cpu.statFuBusy::SimdFloatReduceCmp            0      0.00%     81.06% # attempts to use FU when none available (Count)
system.cpu.statFuBusy::SimdAes                      0      0.00%     81.06% # attempts to use FU when none available (Count)
system.cpu.statFuBusy::SimdAesMix                   0      0.00%     81.06% # attempts to use FU when none available (Count)
system.cpu.statFuBusy::SimdSha1Hash                 0      0.00%     81.06% # attempts to use FU when none available (Count)
system.cpu.statFuBusy::SimdSha1Hash2                0      0.00%     81.06% # attempts to use FU when none available (Count)
system.cpu.statFuBusy::SimdSha256Hash               0      0.00%     81.06% # attempts to use FU when none available (Count)
system.cpu.statFuBusy::SimdSha256Hash2              0      0.00%     81.06% # attempts to use FU when none available (Count)
system.cpu.statFuBusy::SimdShaSigma2                0      0.00%     81.06% # attempts to use FU when none available (Count)
system.cpu.statFuBusy::SimdShaSigma3                0      0.00%     81.06% # attempts to use FU when none available (Count)
system.cpu.statFuBusy::SimdPredAlu                  0      0.00%     81.06% # attempts to use FU when none available (Count)
system.cpu.statFuBusy::MemRead                 183887      8.50%     89.56% # attempts to use FU when none available (Count)
system.cpu.statFuBusy::MemWrite                226011     10.44%    100.00% # attempts to use FU when none available (Count)
system.cpu.statFuBusy::FloatMemRead                 6      0.00%    100.00% # attempts to use FU when none available (Count)
system.cpu.statFuBusy::FloatMemWrite               26      0.00%    100.00% # attempts to use FU when none available (Count)
system.cpu.statFuBusy::IprAccess                    0      0.00%    100.00% # attempts to use FU when none available (Count)
system.cpu.statFuBusy::InstPrefetch                 0      0.00%    100.00% # attempts to use FU when none available (Count)
system.cpu.statIssuedInstType_0::No_OpClass     19844213      1.39%      1.39% # Number of instructions issued per FU type, per thread (Count)
system.cpu.statIssuedInstType_0::IntAlu    1083328885     75.96%     77.35% # Number of instructions issued per FU type, per thread (Count)
system.cpu.statIssuedInstType_0::IntMult        59963      0.00%     77.35% # Number of instructions issued per FU type, per thread (Count)
system.cpu.statIssuedInstType_0::IntDiv        200328      0.01%     77.37% # Number of instructions issued per FU type, per thread (Count)
system.cpu.statIssuedInstType_0::FloatAdd        28992      0.00%     77.37% # Number of instructions issued per FU type, per thread (Count)
system.cpu.statIssuedInstType_0::FloatCmp            0      0.00%     77.37% # Number of instructions issued per FU type, per thread (Count)
system.cpu.statIssuedInstType_0::FloatCvt           32      0.00%     77.37% # Number of instructions issued per FU type, per thread (Count)
system.cpu.statIssuedInstType_0::FloatMult            0      0.00%     77.37% # Number of instructions issued per FU type, per thread (Count)
system.cpu.statIssuedInstType_0::FloatMultAcc            0      0.00%     77.37% # Number of instructions issued per FU type, per thread (Count)
system.cpu.statIssuedInstType_0::FloatDiv            0      0.00%     77.37% # Number of instructions issued per FU type, per thread (Count)
system.cpu.statIssuedInstType_0::FloatMisc            0      0.00%     77.37% # Number of instructions issued per FU type, per thread (Count)
system.cpu.statIssuedInstType_0::FloatSqrt            0      0.00%     77.37% # Number of instructions issued per FU type, per thread (Count)
system.cpu.statIssuedInstType_0::SimdAdd          393      0.00%     77.37% # Number of instructions issued per FU type, per thread (Count)
system.cpu.statIssuedInstType_0::SimdAddAcc            0      0.00%     77.37% # Number of instructions issued per FU type, per thread (Count)
system.cpu.statIssuedInstType_0::SimdAlu       114718      0.01%     77.38% # Number of instructions issued per FU type, per thread (Count)
system.cpu.statIssuedInstType_0::SimdCmp            0      0.00%     77.38% # Number of instructions issued per FU type, per thread (Count)
system.cpu.statIssuedInstType_0::SimdCvt       114535      0.01%     77.38% # Number of instructions issued per FU type, per thread (Count)
system.cpu.statIssuedInstType_0::SimdMisc       256592      0.02%     77.40% # Number of instructions issued per FU type, per thread (Count)
system.cpu.statIssuedInstType_0::SimdMult            0      0.00%     77.40% # Number of instructions issued per FU type, per thread (Count)
system.cpu.statIssuedInstType_0::SimdMultAcc            0      0.00%     77.40% # Number of instructions issued per FU type, per thread (Count)
system.cpu.statIssuedInstType_0::SimdShift          323      0.00%     77.40% # Number of instructions issued per FU type, per thread (Count)
system.cpu.statIssuedInstType_0::SimdShiftAcc            0      0.00%     77.40% # Number of instructions issued per FU type, per thread (Count)
system.cpu.statIssuedInstType_0::SimdDiv            0      0.00%     77.40% # Number of instructions issued per FU type, per thread (Count)
system.cpu.statIssuedInstType_0::SimdSqrt            0      0.00%     77.40% # Number of instructions issued per FU type, per thread (Count)
system.cpu.statIssuedInstType_0::SimdFloatAdd            0      0.00%     77.40% # Number of instructions issued per FU type, per thread (Count)
system.cpu.statIssuedInstType_0::SimdFloatAlu            0      0.00%     77.40% # Number of instructions issued per FU type, per thread (Count)
system.cpu.statIssuedInstType_0::SimdFloatCmp            0      0.00%     77.40% # Number of instructions issued per FU type, per thread (Count)
system.cpu.statIssuedInstType_0::SimdFloatCvt            0      0.00%     77.40% # Number of instructions issued per FU type, per thread (Count)
system.cpu.statIssuedInstType_0::SimdFloatDiv            0      0.00%     77.40% # Number of instructions issued per FU type, per thread (Count)
system.cpu.statIssuedInstType_0::SimdFloatMisc            0      0.00%     77.40% # Number of instructions issued per FU type, per thread (Count)
system.cpu.statIssuedInstType_0::SimdFloatMult            0      0.00%     77.40% # Number of instructions issued per FU type, per thread (Count)
system.cpu.statIssuedInstType_0::SimdFloatMultAcc            0      0.00%     77.40% # Number of instructions issued per FU type, per thread (Count)
system.cpu.statIssuedInstType_0::SimdFloatSqrt            0      0.00%     77.40% # Number of instructions issued per FU type, per thread (Count)
system.cpu.statIssuedInstType_0::SimdReduceAdd            0      0.00%     77.40% # Number of instructions issued per FU type, per thread (Count)
system.cpu.statIssuedInstType_0::SimdReduceAlu            0      0.00%     77.40% # Number of instructions issued per FU type, per thread (Count)
system.cpu.statIssuedInstType_0::SimdReduceCmp            0      0.00%     77.40% # Number of instructions issued per FU type, per thread (Count)
system.cpu.statIssuedInstType_0::SimdFloatReduceAdd            0      0.00%     77.40% # Number of instructions issued per FU type, per thread (Count)
system.cpu.statIssuedInstType_0::SimdFloatReduceCmp            0      0.00%     77.40% # Number of instructions issued per FU type, per thread (Count)
system.cpu.statIssuedInstType_0::SimdAes            0      0.00%     77.40% # Number of instructions issued per FU type, per thread (Count)
system.cpu.statIssuedInstType_0::SimdAesMix            0      0.00%     77.40% # Number of instructions issued per FU type, per thread (Count)
system.cpu.statIssuedInstType_0::SimdSha1Hash            0      0.00%     77.40% # Number of instructions issued per FU type, per thread (Count)
system.cpu.statIssuedInstType_0::SimdSha1Hash2            0      0.00%     77.40% # Number of instructions issued per FU type, per thread (Count)
system.cpu.statIssuedInstType_0::SimdSha256Hash            0      0.00%     77.40% # Number of instructions issued per FU type, per thread (Count)
system.cpu.statIssuedInstType_0::SimdSha256Hash2            0      0.00%     77.40% # Number of instructions issued per FU type, per thread (Count)
system.cpu.statIssuedInstType_0::SimdShaSigma2            0      0.00%     77.40% # Number of instructions issued per FU type, per thread (Count)
system.cpu.statIssuedInstType_0::SimdShaSigma3            0      0.00%     77.40% # Number of instructions issued per FU type, per thread (Count)
system.cpu.statIssuedInstType_0::SimdPredAlu            0      0.00%     77.40% # Number of instructions issued per FU type, per thread (Count)
system.cpu.statIssuedInstType_0::MemRead    222519540     15.60%     93.00% # Number of instructions issued per FU type, per thread (Count)
system.cpu.statIssuedInstType_0::MemWrite     99657812      6.99%     99.99% # Number of instructions issued per FU type, per thread (Count)
system.cpu.statIssuedInstType_0::FloatMemRead        86565      0.01%    100.00% # Number of instructions issued per FU type, per thread (Count)
system.cpu.statIssuedInstType_0::FloatMemWrite        29875      0.00%    100.00% # Number of instructions issued per FU type, per thread (Count)
system.cpu.statIssuedInstType_0::IprAccess            0      0.00%    100.00% # Number of instructions issued per FU type, per thread (Count)
system.cpu.statIssuedInstType_0::InstPrefetch            0      0.00%    100.00% # Number of instructions issued per FU type, per thread (Count)
system.cpu.statIssuedInstType_0::total     1426242766                       # Number of instructions issued per FU type, per thread (Count)
system.cpu.issueRate                         2.537880                       # Inst issue rate ((Count/Cycle))
system.cpu.fuBusy                             2164507                       # FU busy when requested (Count)
system.cpu.fuBusyRate                        0.001518                       # FU busy rate (busy events/executed inst) ((Count/Count))
system.cpu.intInstQueueReads               3413803856                       # Number of integer instruction queue reads (Count)
system.cpu.intInstQueueWrites              1562296819                       # Number of integer instruction queue writes (Count)
system.cpu.intInstQueueWakeupAccesses      1409951069                       # Number of integer instruction queue wakeup accesses (Count)
system.cpu.fpInstQueueReads                   1435191                       # Number of floating instruction queue reads (Count)
system.cpu.fpInstQueueWrites                   720511                       # Number of floating instruction queue writes (Count)
system.cpu.fpInstQueueWakeupAccesses           717037                       # Number of floating instruction queue wakeup accesses (Count)
system.cpu.vecInstQueueReads                        0                       # Number of vector instruction queue reads (Count)
system.cpu.vecInstQueueWrites                       0                       # Number of vector instruction queue writes (Count)
system.cpu.vecInstQueueWakeupAccesses               0                       # Number of vector instruction queue wakeup accesses (Count)
system.cpu.intAluAccesses                  1407845444                       # Number of integer alu accesses (Count)
system.cpu.fpAluAccesses                       717616                       # Number of floating point alu accesses (Count)
system.cpu.vecAluAccesses                           0                       # Number of vector alu accesses (Count)
system.cpu.numInsts                        1414041479                       # Number of executed instructions (Count)
system.cpu.numLoadInsts                     219306141                       # Number of load instructions executed (Count)
system.cpu.numSquashedInsts                  12201287                       # Number of squashed instructions skipped in execute (Count)
system.cpu.numSwp                                   0                       # Number of swp insts executed (Count)
system.cpu.numNop                                   0                       # Number of nop insts executed (Count)
system.cpu.numRefs                          317935734                       # Number of memory reference insts executed (Count)
system.cpu.numBranches                      146928895                       # Number of branches executed (Count)
system.cpu.numStoreInsts                     98629593                       # Number of stores executed (Count)
system.cpu.numRate                           2.516169                       # Inst execution rate ((Count/Cycle))
system.cpu.timesIdled                          314199                       # Number of times that the entire CPU went into an idle state and unscheduled itself (Count)
system.cpu.idleCycles                         1421641                       # Total number of cycles that the CPU has spent unscheduled due to idling (Cycle)
system.cpu.quiesceCycles                    120803694                       # Total number of cycles that CPU has spent quiesced or waiting for an interrupt (Cycle)
system.cpu.committedInsts                   685048767                       # Number of Instructions Simulated (Count)
system.cpu.committedOps                    1324124270                       # Number of Ops (including micro ops) Simulated (Count)
system.cpu.cpi                               0.820353                       # CPI: Cycles Per Instruction ((Cycle/Count))
system.cpu.totalCpi                          0.820353                       # CPI: Total CPI of All Threads ((Cycle/Count))
system.cpu.ipc                               1.218987                       # IPC: Instructions Per Cycle ((Count/Cycle))
system.cpu.totalIpc                          1.218987                       # IPC: Total IPC of All Threads ((Count/Cycle))
system.cpu.intRegfileReads                 1629108107                       # Number of integer regfile reads (Count)
system.cpu.intRegfileWrites                1034608958                       # Number of integer regfile writes (Count)
system.cpu.fpRegfileReads                     1259432                       # Number of floating regfile reads (Count)
system.cpu.fpRegfileWrites                     629963                       # Number of floating regfile writes (Count)
system.cpu.ccRegfileReads                   666997044                       # number of cc regfile reads (Count)
system.cpu.ccRegfileWrites                  442130908                       # number of cc regfile writes (Count)
system.cpu.miscRegfileReads                 638537654                       # number of misc regfile reads (Count)
system.cpu.miscRegfileWrites                       18                       # number of misc regfile writes (Count)
system.cpu.MemDepUnit__0.insertedLoads      224187482                       # Number of loads inserted to the mem dependence unit. (Count)
system.cpu.MemDepUnit__0.insertedStores     101948720                       # Number of stores inserted to the mem dependence unit. (Count)
system.cpu.MemDepUnit__0.conflictingLoads     12100410                       # Number of conflicting loads. (Count)
system.cpu.MemDepUnit__0.conflictingStores      8560598                       # Number of conflicting stores. (Count)
system.cpu.MemDepUnit__1.insertedLoads              0                       # Number of loads inserted to the mem dependence unit. (Count)
system.cpu.MemDepUnit__1.insertedStores             0                       # Number of stores inserted to the mem dependence unit. (Count)
system.cpu.MemDepUnit__1.conflictingLoads            0                       # Number of conflicting loads. (Count)
system.cpu.MemDepUnit__1.conflictingStores            0                       # Number of conflicting stores. (Count)
system.cpu.MemDepUnit__2.insertedLoads              0                       # Number of loads inserted to the mem dependence unit. (Count)
system.cpu.MemDepUnit__2.insertedStores             0                       # Number of stores inserted to the mem dependence unit. (Count)
system.cpu.MemDepUnit__2.conflictingLoads            0                       # Number of conflicting loads. (Count)
system.cpu.MemDepUnit__2.conflictingStores            0                       # Number of conflicting stores. (Count)
system.cpu.MemDepUnit__3.insertedLoads              0                       # Number of loads inserted to the mem dependence unit. (Count)
system.cpu.MemDepUnit__3.insertedStores             0                       # Number of stores inserted to the mem dependence unit. (Count)
system.cpu.MemDepUnit__3.conflictingLoads            0                       # Number of conflicting loads. (Count)
system.cpu.MemDepUnit__3.conflictingStores            0                       # Number of conflicting stores. (Count)
system.cpu.branchPred.lookups               165720145                       # Number of BP lookups (Count)
system.cpu.branchPred.condPredicted         130612198                       # Number of conditional branches predicted (Count)
system.cpu.branchPred.condIncorrect           6500836                       # Number of conditional branches incorrect (Count)
system.cpu.branchPred.BTBLookups             63726386                       # Number of BTB lookups (Count)
system.cpu.branchPred.BTBUpdates              2705640                       # Number of BTB updates (Count)
system.cpu.branchPred.BTBHits                63543243                       # Number of BTB hits (Count)
system.cpu.branchPred.BTBHitRatio            0.997126                       # BTB Hit Ratio (Ratio)
system.cpu.branchPred.RASUsed                11980194                       # Number of times the RAS was used to get a target. (Count)
system.cpu.branchPred.RASIncorrect               1618                       # Number of incorrect RAS predictions. (Count)
system.cpu.branchPred.indirectLookups         9526741                       # Number of indirect predictor lookups. (Count)
system.cpu.branchPred.indirectHits            9494912                       # Number of indirect target hits. (Count)
system.cpu.branchPred.indirectMisses            31829                       # Number of indirect misses. (Count)
system.cpu.branchPred.indirectMispredicted        28773                       # Number of mispredicted indirect branches. (Count)
system.cpu.commit.commitSquashedInsts       111805576                       # The number of squashed insts skipped by commit (Count)
system.cpu.commit.commitNonSpecStalls              18                       # The number of times commit has been forced to stall to communicate backwards (Count)
system.cpu.commit.branchMispredicts           6455081                       # The number of times a branch was mispredicted (Count)
system.cpu.commit.numCommittedDist::samples    543700744                       # Number of insts commited each cycle (Count)
system.cpu.commit.numCommittedDist::mean     2.435392                       # Number of insts commited each cycle (Count)
system.cpu.commit.numCommittedDist::stdev     2.439287                       # Number of insts commited each cycle (Count)
system.cpu.commit.numCommittedDist::underflows            0      0.00%      0.00% # Number of insts commited each cycle (Count)
system.cpu.commit.numCommittedDist::0       150282098     27.64%     27.64% # Number of insts commited each cycle (Count)
system.cpu.commit.numCommittedDist::1       102686135     18.89%     46.53% # Number of insts commited each cycle (Count)
system.cpu.commit.numCommittedDist::2        58334118     10.73%     57.26% # Number of insts commited each cycle (Count)
system.cpu.commit.numCommittedDist::3       103977889     19.12%     76.38% # Number of insts commited each cycle (Count)
system.cpu.commit.numCommittedDist::4        24191045      4.45%     80.83% # Number of insts commited each cycle (Count)
system.cpu.commit.numCommittedDist::5        23969741      4.41%     85.24% # Number of insts commited each cycle (Count)
system.cpu.commit.numCommittedDist::6        26458443      4.87%     90.10% # Number of insts commited each cycle (Count)
system.cpu.commit.numCommittedDist::7        12937511      2.38%     92.48% # Number of insts commited each cycle (Count)
system.cpu.commit.numCommittedDist::8        40863764      7.52%    100.00% # Number of insts commited each cycle (Count)
system.cpu.commit.numCommittedDist::overflows            0      0.00%    100.00% # Number of insts commited each cycle (Count)
system.cpu.commit.numCommittedDist::min_value            0                       # Number of insts commited each cycle (Count)
system.cpu.commit.numCommittedDist::max_value            8                       # Number of insts commited each cycle (Count)
system.cpu.commit.numCommittedDist::total    543700744                       # Number of insts commited each cycle (Count)
system.cpu.commit.instsCommitted            685048767                       # Number of instructions committed (Count)
system.cpu.commit.opsCommitted             1324124270                       # Number of ops (including micro ops) committed (Count)
system.cpu.commit.memRefs                   305030173                       # Number of memory references committed (Count)
system.cpu.commit.loads                     209682612                       # Number of loads committed (Count)
system.cpu.commit.amos                              0                       # Number of atomic instructions committed (Count)
system.cpu.commit.membars                           0                       # Number of memory barriers committed (Count)
system.cpu.commit.branches                  141580954                       # Number of branches committed (Count)
system.cpu.commit.vectorInstructions                0                       # Number of committed Vector instructions. (Count)
system.cpu.commit.floating                     715699                       # Number of committed floating point instructions. (Count)
system.cpu.commit.integer                  1303634564                       # Number of committed integer instructions. (Count)
system.cpu.commit.functionCalls              10328377                       # Number of function calls committed. (Count)
system.cpu.commit.committedInstType_0::No_OpClass     19047485      1.44%      1.44% # Class of committed instruction (Count)
system.cpu.commit.committedInstType_0::IntAlu    999271971     75.47%     76.91% # Class of committed instruction (Count)
system.cpu.commit.committedInstType_0::IntMult        59919      0.00%     76.91% # Class of committed instruction (Count)
system.cpu.commit.committedInstType_0::IntDiv       200198      0.02%     76.92% # Class of committed instruction (Count)
system.cpu.commit.committedInstType_0::FloatAdd        28795      0.00%     76.93% # Class of committed instruction (Count)
system.cpu.commit.committedInstType_0::FloatCmp            0      0.00%     76.93% # Class of committed instruction (Count)
system.cpu.commit.committedInstType_0::FloatCvt           32      0.00%     76.93% # Class of committed instruction (Count)
system.cpu.commit.committedInstType_0::FloatMult            0      0.00%     76.93% # Class of committed instruction (Count)
system.cpu.commit.committedInstType_0::FloatMultAcc            0      0.00%     76.93% # Class of committed instruction (Count)
system.cpu.commit.committedInstType_0::FloatDiv            0      0.00%     76.93% # Class of committed instruction (Count)
system.cpu.commit.committedInstType_0::FloatMisc            0      0.00%     76.93% # Class of committed instruction (Count)
system.cpu.commit.committedInstType_0::FloatSqrt            0      0.00%     76.93% # Class of committed instruction (Count)
system.cpu.commit.committedInstType_0::SimdAdd          350      0.00%     76.93% # Class of committed instruction (Count)
system.cpu.commit.committedInstType_0::SimdAddAcc            0      0.00%     76.93% # Class of committed instruction (Count)
system.cpu.commit.committedInstType_0::SimdAlu       114332      0.01%     76.94% # Class of committed instruction (Count)
system.cpu.commit.committedInstType_0::SimdCmp            0      0.00%     76.94% # Class of committed instruction (Count)
system.cpu.commit.committedInstType_0::SimdCvt       114394      0.01%     76.94% # Class of committed instruction (Count)
system.cpu.commit.committedInstType_0::SimdMisc       256518      0.02%     76.96% # Class of committed instruction (Count)
system.cpu.commit.committedInstType_0::SimdMult            0      0.00%     76.96% # Class of committed instruction (Count)
system.cpu.commit.committedInstType_0::SimdMultAcc            0      0.00%     76.96% # Class of committed instruction (Count)
system.cpu.commit.committedInstType_0::SimdShift          103      0.00%     76.96% # Class of committed instruction (Count)
system.cpu.commit.committedInstType_0::SimdShiftAcc            0      0.00%     76.96% # Class of committed instruction (Count)
system.cpu.commit.committedInstType_0::SimdDiv            0      0.00%     76.96% # Class of committed instruction (Count)
system.cpu.commit.committedInstType_0::SimdSqrt            0      0.00%     76.96% # Class of committed instruction (Count)
system.cpu.commit.committedInstType_0::SimdFloatAdd            0      0.00%     76.96% # Class of committed instruction (Count)
system.cpu.commit.committedInstType_0::SimdFloatAlu            0      0.00%     76.96% # Class of committed instruction (Count)
system.cpu.commit.committedInstType_0::SimdFloatCmp            0      0.00%     76.96% # Class of committed instruction (Count)
system.cpu.commit.committedInstType_0::SimdFloatCvt            0      0.00%     76.96% # Class of committed instruction (Count)
system.cpu.commit.committedInstType_0::SimdFloatDiv            0      0.00%     76.96% # Class of committed instruction (Count)
system.cpu.commit.committedInstType_0::SimdFloatMisc            0      0.00%     76.96% # Class of committed instruction (Count)
system.cpu.commit.committedInstType_0::SimdFloatMult            0      0.00%     76.96% # Class of committed instruction (Count)
system.cpu.commit.committedInstType_0::SimdFloatMultAcc            0      0.00%     76.96% # Class of committed instruction (Count)
system.cpu.commit.committedInstType_0::SimdFloatSqrt            0      0.00%     76.96% # Class of committed instruction (Count)
system.cpu.commit.committedInstType_0::SimdReduceAdd            0      0.00%     76.96% # Class of committed instruction (Count)
system.cpu.commit.committedInstType_0::SimdReduceAlu            0      0.00%     76.96% # Class of committed instruction (Count)
system.cpu.commit.committedInstType_0::SimdReduceCmp            0      0.00%     76.96% # Class of committed instruction (Count)
system.cpu.commit.committedInstType_0::SimdFloatReduceAdd            0      0.00%     76.96% # Class of committed instruction (Count)
system.cpu.commit.committedInstType_0::SimdFloatReduceCmp            0      0.00%     76.96% # Class of committed instruction (Count)
system.cpu.commit.committedInstType_0::SimdAes            0      0.00%     76.96% # Class of committed instruction (Count)
system.cpu.commit.committedInstType_0::SimdAesMix            0      0.00%     76.96% # Class of committed instruction (Count)
system.cpu.commit.committedInstType_0::SimdSha1Hash            0      0.00%     76.96% # Class of committed instruction (Count)
system.cpu.commit.committedInstType_0::SimdSha1Hash2            0      0.00%     76.96% # Class of committed instruction (Count)
system.cpu.commit.committedInstType_0::SimdSha256Hash            0      0.00%     76.96% # Class of committed instruction (Count)
system.cpu.commit.committedInstType_0::SimdSha256Hash2            0      0.00%     76.96% # Class of committed instruction (Count)
system.cpu.commit.committedInstType_0::SimdShaSigma2            0      0.00%     76.96% # Class of committed instruction (Count)
system.cpu.commit.committedInstType_0::SimdShaSigma3            0      0.00%     76.96% # Class of committed instruction (Count)
system.cpu.commit.committedInstType_0::SimdPredAlu            0      0.00%     76.96% # Class of committed instruction (Count)
system.cpu.commit.committedInstType_0::MemRead    209596497     15.83%     92.79% # Class of committed instruction (Count)
system.cpu.commit.committedInstType_0::MemWrite     95318010      7.20%     99.99% # Class of committed instruction (Count)
system.cpu.commit.committedInstType_0::FloatMemRead        86115      0.01%    100.00% # Class of committed instruction (Count)
system.cpu.commit.committedInstType_0::FloatMemWrite        29551      0.00%    100.00% # Class of committed instruction (Count)
system.cpu.commit.committedInstType_0::IprAccess            0      0.00%    100.00% # Class of committed instruction (Count)
system.cpu.commit.committedInstType_0::InstPrefetch            0      0.00%    100.00% # Class of committed instruction (Count)
system.cpu.commit.committedInstType_0::total   1324124270                       # Class of committed instruction (Count)
system.cpu.commit.commitEligibleSamples      40863764                       # number cycles where commit BW limit reached (Cycle)
system.cpu.dcache.demandHits::cpu.data      306839219                       # number of demand (read+write) hits (Count)
system.cpu.dcache.demandHits::total         306839219                       # number of demand (read+write) hits (Count)
system.cpu.dcache.overallHits::cpu.data     306839219                       # number of overall hits (Count)
system.cpu.dcache.overallHits::total        306839219                       # number of overall hits (Count)
system.cpu.dcache.demandMisses::cpu.data         8344                       # number of demand (read+write) misses (Count)
system.cpu.dcache.demandMisses::total            8344                       # number of demand (read+write) misses (Count)
system.cpu.dcache.overallMisses::cpu.data         8344                       # number of overall misses (Count)
system.cpu.dcache.overallMisses::total           8344                       # number of overall misses (Count)
system.cpu.dcache.demandMissLatency::cpu.data    508420500                       # number of demand (read+write) miss ticks (Tick)
system.cpu.dcache.demandMissLatency::total    508420500                       # number of demand (read+write) miss ticks (Tick)
system.cpu.dcache.overallMissLatency::cpu.data    508420500                       # number of overall miss ticks (Tick)
system.cpu.dcache.overallMissLatency::total    508420500                       # number of overall miss ticks (Tick)
system.cpu.dcache.demandAccesses::cpu.data    306847563                       # number of demand (read+write) accesses (Count)
system.cpu.dcache.demandAccesses::total     306847563                       # number of demand (read+write) accesses (Count)
system.cpu.dcache.overallAccesses::cpu.data    306847563                       # number of overall (read+write) accesses (Count)
system.cpu.dcache.overallAccesses::total    306847563                       # number of overall (read+write) accesses (Count)
system.cpu.dcache.demandMissRate::cpu.data     0.000027                       # miss rate for demand accesses (Ratio)
system.cpu.dcache.demandMissRate::total      0.000027                       # miss rate for demand accesses (Ratio)
system.cpu.dcache.overallMissRate::cpu.data     0.000027                       # miss rate for overall accesses (Ratio)
system.cpu.dcache.overallMissRate::total     0.000027                       # miss rate for overall accesses (Ratio)
system.cpu.dcache.demandAvgMissLatency::cpu.data 60932.466443                       # average overall miss latency in ticks ((Tick/Count))
system.cpu.dcache.demandAvgMissLatency::total 60932.466443                       # average overall miss latency in ticks ((Tick/Count))
system.cpu.dcache.overallAvgMissLatency::cpu.data 60932.466443                       # average overall miss latency ((Tick/Count))
system.cpu.dcache.overallAvgMissLatency::total 60932.466443                       # average overall miss latency ((Tick/Count))
system.cpu.dcache.blockedCycles::no_mshrs          323                       # number of cycles access was blocked (Cycle)
system.cpu.dcache.blockedCycles::no_targets            0                       # number of cycles access was blocked (Cycle)
system.cpu.dcache.blockedCauses::no_mshrs           22                       # number of times access was blocked (Count)
system.cpu.dcache.blockedCauses::no_targets            0                       # number of times access was blocked (Count)
system.cpu.dcache.avgBlocked::no_mshrs      14.681818                       # average number of cycles each access was blocked ((Cycle/Count))
system.cpu.dcache.avgBlocked::no_targets          nan                       # average number of cycles each access was blocked ((Cycle/Count))
system.cpu.dcache.writebacks::writebacks          775                       # number of writebacks (Count)
system.cpu.dcache.writebacks::total               775                       # number of writebacks (Count)
system.cpu.dcache.demandMshrHits::cpu.data         5101                       # number of demand (read+write) MSHR hits (Count)
system.cpu.dcache.demandMshrHits::total          5101                       # number of demand (read+write) MSHR hits (Count)
system.cpu.dcache.overallMshrHits::cpu.data         5101                       # number of overall MSHR hits (Count)
system.cpu.dcache.overallMshrHits::total         5101                       # number of overall MSHR hits (Count)
system.cpu.dcache.demandMshrMisses::cpu.data         3243                       # number of demand (read+write) MSHR misses (Count)
system.cpu.dcache.demandMshrMisses::total         3243                       # number of demand (read+write) MSHR misses (Count)
system.cpu.dcache.overallMshrMisses::cpu.data         3243                       # number of overall MSHR misses (Count)
system.cpu.dcache.overallMshrMisses::total         3243                       # number of overall MSHR misses (Count)
system.cpu.dcache.demandMshrMissLatency::cpu.data    195046000                       # number of demand (read+write) MSHR miss ticks (Tick)
system.cpu.dcache.demandMshrMissLatency::total    195046000                       # number of demand (read+write) MSHR miss ticks (Tick)
system.cpu.dcache.overallMshrMissLatency::cpu.data    195046000                       # number of overall MSHR miss ticks (Tick)
system.cpu.dcache.overallMshrMissLatency::total    195046000                       # number of overall MSHR miss ticks (Tick)
system.cpu.dcache.demandMshrMissRate::cpu.data     0.000011                       # mshr miss ratio for demand accesses (Ratio)
system.cpu.dcache.demandMshrMissRate::total     0.000011                       # mshr miss ratio for demand accesses (Ratio)
system.cpu.dcache.overallMshrMissRate::cpu.data     0.000011                       # mshr miss ratio for overall accesses (Ratio)
system.cpu.dcache.overallMshrMissRate::total     0.000011                       # mshr miss ratio for overall accesses (Ratio)
system.cpu.dcache.demandAvgMshrMissLatency::cpu.data 60143.694110                       # average overall mshr miss latency ((Tick/Count))
system.cpu.dcache.demandAvgMshrMissLatency::total 60143.694110                       # average overall mshr miss latency ((Tick/Count))
system.cpu.dcache.overallAvgMshrMissLatency::cpu.data 60143.694110                       # average overall mshr miss latency ((Tick/Count))
system.cpu.dcache.overallAvgMshrMissLatency::total 60143.694110                       # average overall mshr miss latency ((Tick/Count))
system.cpu.dcache.replacements                   2731                       # number of replacements (Count)
system.cpu.dcache.ReadReq.hits::cpu.data    211492336                       # number of ReadReq hits (Count)
system.cpu.dcache.ReadReq.hits::total       211492336                       # number of ReadReq hits (Count)
system.cpu.dcache.ReadReq.misses::cpu.data         7666                       # number of ReadReq misses (Count)
system.cpu.dcache.ReadReq.misses::total          7666                       # number of ReadReq misses (Count)
system.cpu.dcache.ReadReq.missLatency::cpu.data    464904000                       # number of ReadReq miss ticks (Tick)
system.cpu.dcache.ReadReq.missLatency::total    464904000                       # number of ReadReq miss ticks (Tick)
system.cpu.dcache.ReadReq.accesses::cpu.data    211500002                       # number of ReadReq accesses(hits+misses) (Count)
system.cpu.dcache.ReadReq.accesses::total    211500002                       # number of ReadReq accesses(hits+misses) (Count)
system.cpu.dcache.ReadReq.missRate::cpu.data     0.000036                       # miss rate for ReadReq accesses (Ratio)
system.cpu.dcache.ReadReq.missRate::total     0.000036                       # miss rate for ReadReq accesses (Ratio)
system.cpu.dcache.ReadReq.avgMissLatency::cpu.data 60644.925646                       # average ReadReq miss latency ((Tick/Count))
system.cpu.dcache.ReadReq.avgMissLatency::total 60644.925646                       # average ReadReq miss latency ((Tick/Count))
system.cpu.dcache.ReadReq.mshrHits::cpu.data         5095                       # number of ReadReq MSHR hits (Count)
system.cpu.dcache.ReadReq.mshrHits::total         5095                       # number of ReadReq MSHR hits (Count)
system.cpu.dcache.ReadReq.mshrMisses::cpu.data         2571                       # number of ReadReq MSHR misses (Count)
system.cpu.dcache.ReadReq.mshrMisses::total         2571                       # number of ReadReq MSHR misses (Count)
system.cpu.dcache.ReadReq.mshrMissLatency::cpu.data    152500000                       # number of ReadReq MSHR miss ticks (Tick)
system.cpu.dcache.ReadReq.mshrMissLatency::total    152500000                       # number of ReadReq MSHR miss ticks (Tick)
system.cpu.dcache.ReadReq.mshrMissRate::cpu.data     0.000012                       # mshr miss rate for ReadReq accesses (Ratio)
system.cpu.dcache.ReadReq.mshrMissRate::total     0.000012                       # mshr miss rate for ReadReq accesses (Ratio)
system.cpu.dcache.ReadReq.avgMshrMissLatency::cpu.data 59315.441462                       # average ReadReq mshr miss latency ((Tick/Count))
system.cpu.dcache.ReadReq.avgMshrMissLatency::total 59315.441462                       # average ReadReq mshr miss latency ((Tick/Count))
system.cpu.dcache.WriteReq.hits::cpu.data     95346883                       # number of WriteReq hits (Count)
system.cpu.dcache.WriteReq.hits::total       95346883                       # number of WriteReq hits (Count)
system.cpu.dcache.WriteReq.misses::cpu.data          678                       # number of WriteReq misses (Count)
system.cpu.dcache.WriteReq.misses::total          678                       # number of WriteReq misses (Count)
system.cpu.dcache.WriteReq.missLatency::cpu.data     43516500                       # number of WriteReq miss ticks (Tick)
system.cpu.dcache.WriteReq.missLatency::total     43516500                       # number of WriteReq miss ticks (Tick)
system.cpu.dcache.WriteReq.accesses::cpu.data     95347561                       # number of WriteReq accesses(hits+misses) (Count)
system.cpu.dcache.WriteReq.accesses::total     95347561                       # number of WriteReq accesses(hits+misses) (Count)
system.cpu.dcache.WriteReq.missRate::cpu.data     0.000007                       # miss rate for WriteReq accesses (Ratio)
system.cpu.dcache.WriteReq.missRate::total     0.000007                       # miss rate for WriteReq accesses (Ratio)
system.cpu.dcache.WriteReq.avgMissLatency::cpu.data 64183.628319                       # average WriteReq miss latency ((Tick/Count))
system.cpu.dcache.WriteReq.avgMissLatency::total 64183.628319                       # average WriteReq miss latency ((Tick/Count))
system.cpu.dcache.WriteReq.mshrHits::cpu.data            6                       # number of WriteReq MSHR hits (Count)
system.cpu.dcache.WriteReq.mshrHits::total            6                       # number of WriteReq MSHR hits (Count)
system.cpu.dcache.WriteReq.mshrMisses::cpu.data          672                       # number of WriteReq MSHR misses (Count)
system.cpu.dcache.WriteReq.mshrMisses::total          672                       # number of WriteReq MSHR misses (Count)
system.cpu.dcache.WriteReq.mshrMissLatency::cpu.data     42546000                       # number of WriteReq MSHR miss ticks (Tick)
system.cpu.dcache.WriteReq.mshrMissLatency::total     42546000                       # number of WriteReq MSHR miss ticks (Tick)
system.cpu.dcache.WriteReq.mshrMissRate::cpu.data     0.000007                       # mshr miss rate for WriteReq accesses (Ratio)
system.cpu.dcache.WriteReq.mshrMissRate::total     0.000007                       # mshr miss rate for WriteReq accesses (Ratio)
system.cpu.dcache.WriteReq.avgMshrMissLatency::cpu.data 63312.500000                       # average WriteReq mshr miss latency ((Tick/Count))
system.cpu.dcache.WriteReq.avgMshrMissLatency::total 63312.500000                       # average WriteReq mshr miss latency ((Tick/Count))
system.cpu.dcache.power_state.pwrStateResidencyTicks::UNDEFINED 341392781000                       # Cumulative time (in ticks) in various power states (Tick)
system.cpu.dcache.tags.tagsInUse           511.950588                       # Average ticks per tags in use ((Tick/Count))
system.cpu.dcache.tags.totalRefs            306842462                       # Total number of references to valid blocks. (Count)
system.cpu.dcache.tags.sampledRefs               3243                       # Sample count of references to valid blocks. (Count)
system.cpu.dcache.tags.avgRefs           94616.855381                       # Average number of references to valid blocks. ((Count/Count))
system.cpu.dcache.tags.warmupTick              168000                       # The tick when the warmup percentage was hit. (Tick)
system.cpu.dcache.tags.occupancies::cpu.data   511.950588                       # Average occupied blocks per tick, per requestor ((Count/Tick))
system.cpu.dcache.tags.avgOccs::cpu.data     0.999903                       # Average percentage of cache occupancy ((Ratio/Tick))
system.cpu.dcache.tags.avgOccs::total        0.999903                       # Average percentage of cache occupancy ((Ratio/Tick))
system.cpu.dcache.tags.occupanciesTaskId::1024          512                       # Occupied blocks per task id (Count)
system.cpu.dcache.tags.ageTaskId_1024::0           45                       # Occupied blocks per task id, per block age (Count)
system.cpu.dcache.tags.ageTaskId_1024::4          467                       # Occupied blocks per task id, per block age (Count)
system.cpu.dcache.tags.ratioOccsTaskId::1024            1                       # Ratio of occupied blocks and all blocks, per task id (Ratio)
system.cpu.dcache.tags.tagAccesses          613698369                       # Number of tag accesses (Count)
system.cpu.dcache.tags.dataAccesses         613698369                       # Number of data accesses (Count)
system.cpu.dcache.tags.power_state.pwrStateResidencyTicks::UNDEFINED 341392781000                       # Cumulative time (in ticks) in various power states (Tick)
system.cpu.decode.idleCycles                115307299                       # Number of cycles decode is idle (Cycle)
system.cpu.decode.blockedCycles             236712936                       # Number of cycles decode is blocked (Cycle)
system.cpu.decode.runCycles                  76041909                       # Number of cycles decode is running (Cycle)
system.cpu.decode.unblockCycles             125840488                       # Number of cycles decode is unblocking (Cycle)
system.cpu.decode.squashCycles                6657596                       # Number of cycles decode is squashing (Cycle)
system.cpu.decode.branchResolved             60022776                       # Number of times decode resolved a branch (Count)
system.cpu.decode.branchMispred                 46828                       # Number of times decode detected a branch misprediction (Count)
system.cpu.decode.decodedInsts             1520366179                       # Number of instructions handled by decode (Count)
system.cpu.decode.squashedInsts                 51762                       # Number of squashed instructions handled by decode (Count)
system.cpu.fetch.icacheStallCycles          144210113                       # Number of cycles fetch is stalled on an Icache miss (Cycle)
system.cpu.fetch.insts                      835730682                       # Number of instructions fetch has processed (Count)
system.cpu.fetch.branches                   165720145                       # Number of branches that fetch encountered (Count)
system.cpu.fetch.predictedBranches           85018349                       # Number of branches that fetch has predicted taken (Count)
system.cpu.fetch.cycles                     409622658                       # Number of cycles fetch has run and was not squashing or blocked (Cycle)
system.cpu.fetch.squashCycles                13408784                       # Number of cycles fetch has spent squashing (Cycle)
system.cpu.fetch.miscStallCycles                 3188                       # Number of cycles fetch has spent waiting on interrupts, or bad addresses, or out of MSHRs (Cycle)
system.cpu.fetch.pendingTrapStallCycles         19877                       # Number of stall cycles due to pending traps (Cycle)
system.cpu.fetch.cacheLines                 126545557                       # Number of cache lines fetched (Count)
system.cpu.fetch.icacheSquashes               2727519                       # Number of outstanding Icache misses that were squashed (Count)
system.cpu.fetch.nisnDist::samples          560560228                       # Number of instructions fetched each cycle (Total) (Count)
system.cpu.fetch.nisnDist::mean              2.863125                       # Number of instructions fetched each cycle (Total) (Count)
system.cpu.fetch.nisnDist::stdev             3.457163                       # Number of instructions fetched each cycle (Total) (Count)
system.cpu.fetch.nisnDist::underflows               0      0.00%      0.00% # Number of instructions fetched each cycle (Total) (Count)
system.cpu.fetch.nisnDist::0                302704484     54.00%     54.00% # Number of instructions fetched each cycle (Total) (Count)
system.cpu.fetch.nisnDist::1                 12957136      2.31%     56.31% # Number of instructions fetched each cycle (Total) (Count)
system.cpu.fetch.nisnDist::2                 17297128      3.09%     59.40% # Number of instructions fetched each cycle (Total) (Count)
system.cpu.fetch.nisnDist::3                 11184971      2.00%     61.39% # Number of instructions fetched each cycle (Total) (Count)
system.cpu.fetch.nisnDist::4                 13015880      2.32%     63.71% # Number of instructions fetched each cycle (Total) (Count)
system.cpu.fetch.nisnDist::5                 26045992      4.65%     68.36% # Number of instructions fetched each cycle (Total) (Count)
system.cpu.fetch.nisnDist::6                 30658898      5.47%     73.83% # Number of instructions fetched each cycle (Total) (Count)
system.cpu.fetch.nisnDist::7                 15964878      2.85%     76.68% # Number of instructions fetched each cycle (Total) (Count)
system.cpu.fetch.nisnDist::8                130730861     23.32%    100.00% # Number of instructions fetched each cycle (Total) (Count)
system.cpu.fetch.nisnDist::overflows                0      0.00%    100.00% # Number of instructions fetched each cycle (Total) (Count)
system.cpu.fetch.nisnDist::min_value                0                       # Number of instructions fetched each cycle (Total) (Count)
system.cpu.fetch.nisnDist::max_value                8                       # Number of instructions fetched each cycle (Total) (Count)
system.cpu.fetch.nisnDist::total            560560228                       # Number of instructions fetched each cycle (Total) (Count)
system.cpu.fetch.branchRate                  0.294885                       # Number of branch fetches per cycle (Ratio)
system.cpu.fetch.rate                        1.487113                       # Number of inst fetches per cycle ((Count/Cycle))
system.cpu.icache.demandHits::cpu.inst      125753481                       # number of demand (read+write) hits (Count)
system.cpu.icache.demandHits::total         125753481                       # number of demand (read+write) hits (Count)
system.cpu.icache.overallHits::cpu.inst     125753481                       # number of overall hits (Count)
system.cpu.icache.overallHits::total        125753481                       # number of overall hits (Count)
system.cpu.icache.demandMisses::cpu.inst       792076                       # number of demand (read+write) misses (Count)
system.cpu.icache.demandMisses::total          792076                       # number of demand (read+write) misses (Count)
system.cpu.icache.overallMisses::cpu.inst       792076                       # number of overall misses (Count)
system.cpu.icache.overallMisses::total         792076                       # number of overall misses (Count)
system.cpu.icache.demandMissLatency::cpu.inst   9882396000                       # number of demand (read+write) miss ticks (Tick)
system.cpu.icache.demandMissLatency::total   9882396000                       # number of demand (read+write) miss ticks (Tick)
system.cpu.icache.overallMissLatency::cpu.inst   9882396000                       # number of overall miss ticks (Tick)
system.cpu.icache.overallMissLatency::total   9882396000                       # number of overall miss ticks (Tick)
system.cpu.icache.demandAccesses::cpu.inst    126545557                       # number of demand (read+write) accesses (Count)
system.cpu.icache.demandAccesses::total     126545557                       # number of demand (read+write) accesses (Count)
system.cpu.icache.overallAccesses::cpu.inst    126545557                       # number of overall (read+write) accesses (Count)
system.cpu.icache.overallAccesses::total    126545557                       # number of overall (read+write) accesses (Count)
system.cpu.icache.demandMissRate::cpu.inst     0.006259                       # miss rate for demand accesses (Ratio)
system.cpu.icache.demandMissRate::total      0.006259                       # miss rate for demand accesses (Ratio)
system.cpu.icache.overallMissRate::cpu.inst     0.006259                       # miss rate for overall accesses (Ratio)
system.cpu.icache.overallMissRate::total     0.006259                       # miss rate for overall accesses (Ratio)
system.cpu.icache.demandAvgMissLatency::cpu.inst 12476.575480                       # average overall miss latency in ticks ((Tick/Count))
system.cpu.icache.demandAvgMissLatency::total 12476.575480                       # average overall miss latency in ticks ((Tick/Count))
system.cpu.icache.overallAvgMissLatency::cpu.inst 12476.575480                       # average overall miss latency ((Tick/Count))
system.cpu.icache.overallAvgMissLatency::total 12476.575480                       # average overall miss latency ((Tick/Count))
system.cpu.icache.blockedCycles::no_mshrs          139                       # number of cycles access was blocked (Cycle)
system.cpu.icache.blockedCycles::no_targets            0                       # number of cycles access was blocked (Cycle)
system.cpu.icache.blockedCauses::no_mshrs            3                       # number of times access was blocked (Count)
system.cpu.icache.blockedCauses::no_targets            0                       # number of times access was blocked (Count)
system.cpu.icache.avgBlocked::no_mshrs      46.333333                       # average number of cycles each access was blocked ((Cycle/Count))
system.cpu.icache.avgBlocked::no_targets          nan                       # average number of cycles each access was blocked ((Cycle/Count))
system.cpu.icache.writebacks::writebacks            1                       # number of writebacks (Count)
system.cpu.icache.writebacks::total                 1                       # number of writebacks (Count)
system.cpu.icache.demandMshrHits::cpu.inst        55392                       # number of demand (read+write) MSHR hits (Count)
system.cpu.icache.demandMshrHits::total         55392                       # number of demand (read+write) MSHR hits (Count)
system.cpu.icache.overallMshrHits::cpu.inst        55392                       # number of overall MSHR hits (Count)
system.cpu.icache.overallMshrHits::total        55392                       # number of overall MSHR hits (Count)
system.cpu.icache.demandMshrMisses::cpu.inst       736684                       # number of demand (read+write) MSHR misses (Count)
system.cpu.icache.demandMshrMisses::total       736684                       # number of demand (read+write) MSHR misses (Count)
system.cpu.icache.overallMshrMisses::cpu.inst       736684                       # number of overall MSHR misses (Count)
system.cpu.icache.overallMshrMisses::total       736684                       # number of overall MSHR misses (Count)
system.cpu.icache.demandMshrMissLatency::cpu.inst   8916161000                       # number of demand (read+write) MSHR miss ticks (Tick)
system.cpu.icache.demandMshrMissLatency::total   8916161000                       # number of demand (read+write) MSHR miss ticks (Tick)
system.cpu.icache.overallMshrMissLatency::cpu.inst   8916161000                       # number of overall MSHR miss ticks (Tick)
system.cpu.icache.overallMshrMissLatency::total   8916161000                       # number of overall MSHR miss ticks (Tick)
system.cpu.icache.demandMshrMissRate::cpu.inst     0.005821                       # mshr miss ratio for demand accesses (Ratio)
system.cpu.icache.demandMshrMissRate::total     0.005821                       # mshr miss ratio for demand accesses (Ratio)
system.cpu.icache.overallMshrMissRate::cpu.inst     0.005821                       # mshr miss ratio for overall accesses (Ratio)
system.cpu.icache.overallMshrMissRate::total     0.005821                       # mshr miss ratio for overall accesses (Ratio)
system.cpu.icache.demandAvgMshrMissLatency::cpu.inst 12103.101194                       # average overall mshr miss latency ((Tick/Count))
system.cpu.icache.demandAvgMshrMissLatency::total 12103.101194                       # average overall mshr miss latency ((Tick/Count))
system.cpu.icache.overallAvgMshrMissLatency::cpu.inst 12103.101194                       # average overall mshr miss latency ((Tick/Count))
system.cpu.icache.overallAvgMshrMissLatency::total 12103.101194                       # average overall mshr miss latency ((Tick/Count))
system.cpu.icache.replacements                 736555                       # number of replacements (Count)
system.cpu.icache.ReadReq.hits::cpu.inst    125753481                       # number of ReadReq hits (Count)
system.cpu.icache.ReadReq.hits::total       125753481                       # number of ReadReq hits (Count)
system.cpu.icache.ReadReq.misses::cpu.inst       792076                       # number of ReadReq misses (Count)
system.cpu.icache.ReadReq.misses::total        792076                       # number of ReadReq misses (Count)
system.cpu.icache.ReadReq.missLatency::cpu.inst   9882396000                       # number of ReadReq miss ticks (Tick)
system.cpu.icache.ReadReq.missLatency::total   9882396000                       # number of ReadReq miss ticks (Tick)
system.cpu.icache.ReadReq.accesses::cpu.inst    126545557                       # number of ReadReq accesses(hits+misses) (Count)
system.cpu.icache.ReadReq.accesses::total    126545557                       # number of ReadReq accesses(hits+misses) (Count)
system.cpu.icache.ReadReq.missRate::cpu.inst     0.006259                       # miss rate for ReadReq accesses (Ratio)
system.cpu.icache.ReadReq.missRate::total     0.006259                       # miss rate for ReadReq accesses (Ratio)
system.cpu.icache.ReadReq.avgMissLatency::cpu.inst 12476.575480                       # average ReadReq miss latency ((Tick/Count))
system.cpu.icache.ReadReq.avgMissLatency::total 12476.575480                       # average ReadReq miss latency ((Tick/Count))
system.cpu.icache.ReadReq.mshrHits::cpu.inst        55392                       # number of ReadReq MSHR hits (Count)
system.cpu.icache.ReadReq.mshrHits::total        55392                       # number of ReadReq MSHR hits (Count)
system.cpu.icache.ReadReq.mshrMisses::cpu.inst       736684                       # number of ReadReq MSHR misses (Count)
system.cpu.icache.ReadReq.mshrMisses::total       736684                       # number of ReadReq MSHR misses (Count)
system.cpu.icache.ReadReq.mshrMissLatency::cpu.inst   8916161000                       # number of ReadReq MSHR miss ticks (Tick)
system.cpu.icache.ReadReq.mshrMissLatency::total   8916161000                       # number of ReadReq MSHR miss ticks (Tick)
system.cpu.icache.ReadReq.mshrMissRate::cpu.inst     0.005821                       # mshr miss rate for ReadReq accesses (Ratio)
system.cpu.icache.ReadReq.mshrMissRate::total     0.005821                       # mshr miss rate for ReadReq accesses (Ratio)
system.cpu.icache.ReadReq.avgMshrMissLatency::cpu.inst 12103.101194                       # average ReadReq mshr miss latency ((Tick/Count))
system.cpu.icache.ReadReq.avgMshrMissLatency::total 12103.101194                       # average ReadReq mshr miss latency ((Tick/Count))
system.cpu.icache.power_state.pwrStateResidencyTicks::UNDEFINED 341392781000                       # Cumulative time (in ticks) in various power states (Tick)
system.cpu.icache.tags.tagsInUse           127.997382                       # Average ticks per tags in use ((Tick/Count))
system.cpu.icache.tags.totalRefs            126490164                       # Total number of references to valid blocks. (Count)
system.cpu.icache.tags.sampledRefs             736683                       # Sample count of references to valid blocks. (Count)
system.cpu.icache.tags.avgRefs             171.702298                       # Average number of references to valid blocks. ((Count/Count))
system.cpu.icache.tags.warmupTick               82000                       # The tick when the warmup percentage was hit. (Tick)
system.cpu.icache.tags.occupancies::cpu.inst   127.997382                       # Average occupied blocks per tick, per requestor ((Count/Tick))
system.cpu.icache.tags.avgOccs::cpu.inst     0.999980                       # Average percentage of cache occupancy ((Ratio/Tick))
system.cpu.icache.tags.avgOccs::total        0.999980                       # Average percentage of cache occupancy ((Ratio/Tick))
system.cpu.icache.tags.occupanciesTaskId::1024          128                       # Occupied blocks per task id (Count)
system.cpu.icache.tags.ageTaskId_1024::0           98                       # Occupied blocks per task id, per block age (Count)
system.cpu.icache.tags.ageTaskId_1024::1            1                       # Occupied blocks per task id, per block age (Count)
system.cpu.icache.tags.ageTaskId_1024::4           29                       # Occupied blocks per task id, per block age (Count)
system.cpu.icache.tags.ratioOccsTaskId::1024            1                       # Ratio of occupied blocks and all blocks, per task id (Ratio)
system.cpu.icache.tags.tagAccesses          253827797                       # Number of tag accesses (Count)
system.cpu.icache.tags.dataAccesses         253827797                       # Number of data accesses (Count)
system.cpu.icache.tags.power_state.pwrStateResidencyTicks::UNDEFINED 341392781000                       # Cumulative time (in ticks) in various power states (Tick)
system.cpu.iew.idleCycles                           0                       # Number of cycles IEW is idle (Cycle)
system.cpu.iew.squashCycles                   6657596                       # Number of cycles IEW is squashing (Cycle)
system.cpu.iew.blockCycles                   10390697                       # Number of cycles IEW is blocking (Cycle)
system.cpu.iew.unblockCycles                  2387208                       # Number of cycles IEW is unblocking (Cycle)
system.cpu.iew.dispatchedInsts             1443568953                       # Number of instructions dispatched to IQ (Count)
system.cpu.iew.dispSquashedInsts               518296                       # Number of squashed instructions skipped by dispatch (Count)
system.cpu.iew.dispLoadInsts                224187482                       # Number of dispatched load instructions (Count)
system.cpu.iew.dispStoreInsts               101948720                       # Number of dispatched store instructions (Count)
system.cpu.iew.dispNonSpecInsts                    19                       # Number of dispatched non-speculative instructions (Count)
system.cpu.iew.iqFullEvents                   2383271                       # Number of times the IQ has become full, causing a stall (Count)
system.cpu.iew.lsqFullEvents                     2310                       # Number of times the LSQ has become full, causing a stall (Count)
system.cpu.iew.memOrderViolationEvents           4060                       # Number of memory order violations (Count)
system.cpu.iew.predictedTakenIncorrect        4769267                       # Number of branches that were predicted taken incorrectly (Count)
system.cpu.iew.predictedNotTakenIncorrect      3096483                       # Number of branches that were predicted not taken incorrectly (Count)
system.cpu.iew.branchMispredicts              7865750                       # Number of branch mispredicts detected at execute (Count)
system.cpu.iew.instsToCommit               1411899772                       # Cumulative count of insts sent to commit (Count)
system.cpu.iew.writebackCount              1410668106                       # Cumulative count of insts written-back (Count)
system.cpu.iew.producerInst                 920829904                       # Number of instructions producing a value (Count)
system.cpu.iew.consumerInst                1292815480                       # Number of instructions consuming a value (Count)
system.cpu.iew.wbRate                        2.510167                       # Insts written-back per cycle ((Count/Cycle))
system.cpu.iew.wbFanout                      0.712267                       # Average fanout of values written-back ((Count/Count))
system.cpu.interrupts.clk_domain.clock           8000                       # Clock period in ticks (Tick)
system.cpu.lsq0.forwLoads                     7820247                       # Number of loads that had data forwarded from stores (Count)
system.cpu.lsq0.squashedLoads                14504870                       # Number of loads squashed (Count)
system.cpu.lsq0.ignoredResponses               107126                       # Number of memory responses ignored because the instruction is squashed (Count)
system.cpu.lsq0.memOrderViolation                4060                       # Number of memory ordering violations (Count)
system.cpu.lsq0.squashedStores                6601159                       # Number of stores squashed (Count)
system.cpu.lsq0.rescheduledLoads                    1                       # Number of loads that were rescheduled (Count)
system.cpu.lsq0.blockedByCache                     12                       # Number of times an access to memory failed due to the cache being blocked (Count)
system.cpu.lsq0.loadToUse::samples          209682612                       # Distribution of cycle latency between the first time a load is issued and its completion (Unspecified)
system.cpu.lsq0.loadToUse::mean              3.116612                       # Distribution of cycle latency between the first time a load is issued and its completion (Unspecified)
system.cpu.lsq0.loadToUse::stdev             0.872526                       # Distribution of cycle latency between the first time a load is issued and its completion (Unspecified)
system.cpu.lsq0.loadToUse::0-9              209676014    100.00%    100.00% # Distribution of cycle latency between the first time a load is issued and its completion (Unspecified)
system.cpu.lsq0.loadToUse::10-19                   73      0.00%    100.00% # Distribution of cycle latency between the first time a load is issued and its completion (Unspecified)
system.cpu.lsq0.loadToUse::20-29                  611      0.00%    100.00% # Distribution of cycle latency between the first time a load is issued and its completion (Unspecified)
system.cpu.lsq0.loadToUse::30-39                   28      0.00%    100.00% # Distribution of cycle latency between the first time a load is issued and its completion (Unspecified)
system.cpu.lsq0.loadToUse::40-49                    8      0.00%    100.00% # Distribution of cycle latency between the first time a load is issued and its completion (Unspecified)
system.cpu.lsq0.loadToUse::50-59                   15      0.00%    100.00% # Distribution of cycle latency between the first time a load is issued and its completion (Unspecified)
system.cpu.lsq0.loadToUse::60-69                   12      0.00%    100.00% # Distribution of cycle latency between the first time a load is issued and its completion (Unspecified)
system.cpu.lsq0.loadToUse::70-79                   32      0.00%    100.00% # Distribution of cycle latency between the first time a load is issued and its completion (Unspecified)
system.cpu.lsq0.loadToUse::80-89                   76      0.00%    100.00% # Distribution of cycle latency between the first time a load is issued and its completion (Unspecified)
system.cpu.lsq0.loadToUse::90-99                   62      0.00%    100.00% # Distribution of cycle latency between the first time a load is issued and its completion (Unspecified)
system.cpu.lsq0.loadToUse::100-109                194      0.00%    100.00% # Distribution of cycle latency between the first time a load is issued and its completion (Unspecified)
system.cpu.lsq0.loadToUse::110-119                258      0.00%    100.00% # Distribution of cycle latency between the first time a load is issued and its completion (Unspecified)
system.cpu.lsq0.loadToUse::120-129                696      0.00%    100.00% # Distribution of cycle latency between the first time a load is issued and its completion (Unspecified)
system.cpu.lsq0.loadToUse::130-139               3591      0.00%    100.00% # Distribution of cycle latency between the first time a load is issued and its completion (Unspecified)
system.cpu.lsq0.loadToUse::140-149                326      0.00%    100.00% # Distribution of cycle latency between the first time a load is issued and its completion (Unspecified)
system.cpu.lsq0.loadToUse::150-159                 93      0.00%    100.00% # Distribution of cycle latency between the first time a load is issued and its completion (Unspecified)
system.cpu.lsq0.loadToUse::160-169                328      0.00%    100.00% # Distribution of cycle latency between the first time a load is issued and its completion (Unspecified)
system.cpu.lsq0.loadToUse::170-179                 38      0.00%    100.00% # Distribution of cycle latency between the first time a load is issued and its completion (Unspecified)
system.cpu.lsq0.loadToUse::180-189                 12      0.00%    100.00% # Distribution of cycle latency between the first time a load is issued and its completion (Unspecified)
system.cpu.lsq0.loadToUse::190-199                 58      0.00%    100.00% # Distribution of cycle latency between the first time a load is issued and its completion (Unspecified)
system.cpu.lsq0.loadToUse::200-209                  7      0.00%    100.00% # Distribution of cycle latency between the first time a load is issued and its completion (Unspecified)
system.cpu.lsq0.loadToUse::240-249                  2      0.00%    100.00% # Distribution of cycle latency between the first time a load is issued and its completion (Unspecified)
system.cpu.lsq0.loadToUse::270-279                  1      0.00%    100.00% # Distribution of cycle latency between the first time a load is issued and its completion (Unspecified)
system.cpu.lsq0.loadToUse::280-289                  1      0.00%    100.00% # Distribution of cycle latency between the first time a load is issued and its completion (Unspecified)
system.cpu.lsq0.loadToUse::overflows               76      0.00%    100.00% # Distribution of cycle latency between the first time a load is issued and its completion (Unspecified)
system.cpu.lsq0.loadToUse::min_value                2                       # Distribution of cycle latency between the first time a load is issued and its completion (Unspecified)
system.cpu.lsq0.loadToUse::max_value              700                       # Distribution of cycle latency between the first time a load is issued and its completion (Unspecified)
system.cpu.lsq0.loadToUse::total            209682612                       # Distribution of cycle latency between the first time a load is issued and its completion (Unspecified)
system.cpu.mmu.dtb.rdAccesses               219320367                       # TLB accesses on read requests (Count)
system.cpu.mmu.dtb.wrAccesses                98629598                       # TLB accesses on write requests (Count)
system.cpu.mmu.dtb.rdMisses                       227                       # TLB misses on read requests (Count)
system.cpu.mmu.dtb.wrMisses                        84                       # TLB misses on write requests (Count)
system.cpu.mmu.dtb.walker.power_state.pwrStateResidencyTicks::UNDEFINED 341392781000                       # Cumulative time (in ticks) in various power states (Tick)
[...]
system.mem_ctrl.requestorReadAvgLat::cpu.inst     26423.09                       # Per-requestor read average memory access latency ((Tick/Count))
system.mem_ctrl.requestorReadAvgLat::cpu.data     24246.38                       # Per-requestor read average memory access latency ((Tick/Count))
system.mem_ctrl.dram.bytesRead::cpu.inst        78848                       # Number of bytes read from this memory (Byte)
system.mem_ctrl.dram.bytesRead::cpu.data       167936                       # Number of bytes read from this memory (Byte)
system.mem_ctrl.dram.bytesRead::total          246784                       # Number of bytes read from this memory (Byte)
system.mem_ctrl.dram.bytesInstRead::cpu.inst        78848                       # Number of instructions bytes read from this memory (Byte)
system.mem_ctrl.dram.bytesInstRead::total        78848                       # Number of instructions bytes read from this memory (Byte)
system.mem_ctrl.dram.numReads::cpu.inst          1232                       # Number of read requests responded to by this memory (Count)
system.mem_ctrl.dram.numReads::cpu.data          2624                       # Number of read requests responded to by this memory (Count)
system.mem_ctrl.dram.numReads::total             3856                       # Number of read requests responded to by this memory (Count)
system.mem_ctrl.dram.bwRead::cpu.inst          230960                       # Total read bandwidth from this memory ((Byte/Second))
system.mem_ctrl.dram.bwRead::cpu.data          491914                       # Total read bandwidth from this memory ((Byte/Second))
system.mem_ctrl.dram.bwRead::total             722874                       # Total read bandwidth from this memory ((Byte/Second))
system.mem_ctrl.dram.bwInstRead::cpu.inst       230960                       # Instruction read bandwidth from this memory ((Byte/Second))
system.mem_ctrl.dram.bwInstRead::total         230960                       # Instruction read bandwidth from this memory ((Byte/Second))
system.mem_ctrl.dram.bwTotal::cpu.inst         230960                       # Total bandwidth to/from this memory ((Byte/Second))
system.mem_ctrl.dram.bwTotal::cpu.data         491914                       # Total bandwidth to/from this memory ((Byte/Second))
system.mem_ctrl.dram.bwTotal::total            722874                       # Total bandwidth to/from this memory ((Byte/Second))
system.mem_ctrl.dram.readBursts                  3856                       # Number of DRAM read bursts (Count)
system.mem_ctrl.dram.writeBursts                    0                       # Number of DRAM write bursts (Count)
system.mem_ctrl.dram.perBankRdBursts::0           354                       # Per bank write bursts (Count)
system.mem_ctrl.dram.perBankRdBursts::1           231                       # Per bank write bursts (Count)
system.mem_ctrl.dram.perBankRdBursts::2           315                       # Per bank write bursts (Count)
system.mem_ctrl.dram.perBankRdBursts::3           240                       # Per bank write bursts (Count)
system.mem_ctrl.dram.perBankRdBursts::4           304                       # Per bank write bursts (Count)
system.mem_ctrl.dram.perBankRdBursts::5           183                       # Per bank write bursts (Count)
system.mem_ctrl.dram.perBankRdBursts::6           199                       # Per bank write bursts (Count)
system.mem_ctrl.dram.perBankRdBursts::7           188                       # Per bank write bursts (Count)
system.mem_ctrl.dram.perBankRdBursts::8           227                       # Per bank write bursts (Count)
system.mem_ctrl.dram.perBankRdBursts::9           307                       # Per bank write bursts (Count)
system.mem_ctrl.dram.perBankRdBursts::10          235                       # Per bank write bursts (Count)
system.mem_ctrl.dram.perBankRdBursts::11          237                       # Per bank write bursts (Count)
system.mem_ctrl.dram.perBankRdBursts::12          200                       # Per bank write bursts (Count)
system.mem_ctrl.dram.perBankRdBursts::13          212                       # Per bank write bursts (Count)
system.mem_ctrl.dram.perBankRdBursts::14          179                       # Per bank write bursts (Count)
system.mem_ctrl.dram.perBankRdBursts::15          245                       # Per bank write bursts (Count)
system.mem_ctrl.dram.perBankWrBursts::0             0                       # Per bank write bursts (Count)
system.mem_ctrl.dram.perBankWrBursts::1             0                       # Per bank write bursts (Count)
system.mem_ctrl.dram.perBankWrBursts::2             0                       # Per bank write bursts (Count)
system.mem_ctrl.dram.perBankWrBursts::3             0                       # Per bank write bursts (Count)
system.mem_ctrl.dram.perBankWrBursts::4             0                       # Per bank write bursts (Count)
system.mem_ctrl.dram.perBankWrBursts::5             0                       # Per bank write bursts (Count)
system.mem_ctrl.dram.perBankWrBursts::6             0                       # Per bank write bursts (Count)
system.mem_ctrl.dram.perBankWrBursts::7             0                       # Per bank write bursts (Count)
system.mem_ctrl.dram.perBankWrBursts::8             0                       # Per bank write bursts (Count)
system.mem_ctrl.dram.perBankWrBursts::9             0                       # Per bank write bursts (Count)
system.mem_ctrl.dram.perBankWrBursts::10            0                       # Per bank write bursts (Count)
system.mem_ctrl.dram.perBankWrBursts::11            0                       # Per bank write bursts (Count)
system.mem_ctrl.dram.perBankWrBursts::12            0                       # Per bank write bursts (Count)
system.mem_ctrl.dram.perBankWrBursts::13            0                       # Per bank write bursts (Count)
system.mem_ctrl.dram.perBankWrBursts::14            0                       # Per bank write bursts (Count)
system.mem_ctrl.dram.perBankWrBursts::15            0                       # Per bank write bursts (Count)
system.mem_ctrl.dram.totQLat                 23875750                       # Total ticks spent queuing (Tick)
system.mem_ctrl.dram.totBusLat               19280000                       # Total ticks spent in databus transfers (Tick)
system.mem_ctrl.dram.totMemAccLat            96175750                       # Total ticks spent from burst creation until serviced by the DRAM (Tick)
system.mem_ctrl.dram.avgQLat                  6191.84                       # Average queueing delay per DRAM burst ((Tick/Count))
system.mem_ctrl.dram.avgBusLat                5000.00                       # Average bus latency per DRAM burst ((Tick/Count))
system.mem_ctrl.dram.avgMemAccLat            24941.84                       # Average memory access latency per DRAM burst ((Tick/Count))
system.mem_ctrl.dram.readRowHits                 3271                       # Number of row buffer hits during reads (Count)
system.mem_ctrl.dram.writeRowHits                   0                       # Number of row buffer hits during writes (Count)
system.mem_ctrl.dram.readRowHitRate             84.83                       # Row buffer hit rate for reads (Ratio)
system.mem_ctrl.dram.writeRowHitRate              nan                       # Row buffer hit rate for writes (Ratio)
system.mem_ctrl.dram.bytesPerActivate::samples          575                       # Bytes accessed per row activation (Byte)
system.mem_ctrl.dram.bytesPerActivate::mean   425.627826                       # Bytes accessed per row activation (Byte)
system.mem_ctrl.dram.bytesPerActivate::gmean   262.227022                       # Bytes accessed per row activation (Byte)
system.mem_ctrl.dram.bytesPerActivate::stdev   372.211501                       # Bytes accessed per row activation (Byte)
system.mem_ctrl.dram.bytesPerActivate::0-127          139     24.17%     24.17% # Bytes accessed per row activation (Byte)
system.mem_ctrl.dram.bytesPerActivate::128-255          125     21.74%     45.91% # Bytes accessed per row activation (Byte)
system.mem_ctrl.dram.bytesPerActivate::256-383           68     11.83%     57.74% # Bytes accessed per row activation (Byte)
system.mem_ctrl.dram.bytesPerActivate::384-511           37      6.43%     64.17% # Bytes accessed per row activation (Byte)
system.mem_ctrl.dram.bytesPerActivate::512-639           28      4.87%     69.04% # Bytes accessed per row activation (Byte)
system.mem_ctrl.dram.bytesPerActivate::640-767           23      4.00%     73.04% # Bytes accessed per row activation (Byte)
system.mem_ctrl.dram.bytesPerActivate::768-895           24      4.17%     77.22% # Bytes accessed per row activation (Byte)
system.mem_ctrl.dram.bytesPerActivate::896-1023           16      2.78%     80.00% # Bytes accessed per row activation (Byte)
system.mem_ctrl.dram.bytesPerActivate::1024-1151          115     20.00%    100.00% # Bytes accessed per row activation (Byte)
system.mem_ctrl.dram.bytesPerActivate::total          575                       # Bytes accessed per row activation (Byte)
system.mem_ctrl.dram.bytesRead                 246784                       # Total bytes read (Byte)
system.mem_ctrl.dram.bytesWritten                   0                       # Total bytes written (Byte)
system.mem_ctrl.dram.avgRdBW                 0.722874                       # Average DRAM read bandwidth in MiBytes/s ((Byte/Second))
system.mem_ctrl.dram.avgWrBW                        0                       # Average DRAM write bandwidth in MiBytes/s ((Byte/Second))
system.mem_ctrl.dram.peakBW                  12800.00                       # Theoretical peak bandwidth in MiByte/s ((Byte/Second))
system.mem_ctrl.dram.busUtil                     0.01                       # Data bus utilization in percentage (Ratio)
system.mem_ctrl.dram.busUtilRead                 0.01                       # Data bus utilization in percentage for reads (Ratio)
system.mem_ctrl.dram.busUtilWrite                0.00                       # Data bus utilization in percentage for writes (Ratio)
system.mem_ctrl.dram.pageHitRate                84.83                       # Row buffer hit rate, read and write combined (Ratio)
system.mem_ctrl.dram.power_state.pwrStateResidencyTicks::UNDEFINED 341392781000                       # Cumulative time (in ticks) in various power states (Tick)
system.mem_ctrl.dram.rank0.actEnergy          1963500                       # Energy for activate commands per rank (pJ) (Joule)
system.mem_ctrl.dram.rank0.preEnergy          1032240                       # Energy for precharge commands per rank (pJ) (Joule)
system.mem_ctrl.dram.rank0.readEnergy        14379960                       # Energy for read commands per rank (pJ) (Joule)
system.mem_ctrl.dram.rank0.writeEnergy              0                       # Energy for write commands per rank (pJ) (Joule)
system.mem_ctrl.dram.rank0.refreshEnergy 26948890800.000004                       # Energy for refresh commands per rank (pJ) (Joule)
system.mem_ctrl.dram.rank0.actBackEnergy   5029816230                       # Energy for active background per rank (pJ) (Joule)
system.mem_ctrl.dram.rank0.preBackEnergy 126859193280                       # Energy for precharge background per rank (pJ) (Joule)
system.mem_ctrl.dram.rank0.actPowerDownEnergy            0                       # Energy for active power-down per rank (pJ) (Joule)
system.mem_ctrl.dram.rank0.prePowerDownEnergy            0                       # Energy for precharge power-down per rank (pJ) (Joule)
system.mem_ctrl.dram.rank0.selfRefreshEnergy            0                       # Energy for self refresh per rank (pJ) (Joule)
system.mem_ctrl.dram.rank0.totalEnergy   158855276010                       # Total energy per rank (pJ) (Joule)
system.mem_ctrl.dram.rank0.averagePower    465.315276                       # Core power per rank (mW) (Watt)
system.mem_ctrl.dram.rank0.totalIdleTime            0                       # Total Idle time Per DRAM Rank (Tick)
system.mem_ctrl.dram.rank0.pwrStateTime::IDLE 329759004250                       # Time in different power states (Tick)
system.mem_ctrl.dram.rank0.pwrStateTime::REF  11399700000                       # Time in different power states (Tick)
system.mem_ctrl.dram.rank0.pwrStateTime::SREF            0                       # Time in different power states (Tick)
system.mem_ctrl.dram.rank0.pwrStateTime::PRE_PDN            0                       # Time in different power states (Tick)
system.mem_ctrl.dram.rank0.pwrStateTime::ACT    234076750                       # Time in different power states (Tick)
system.mem_ctrl.dram.rank0.pwrStateTime::ACT_PDN            0                       # Time in different power states (Tick)
system.mem_ctrl.dram.rank1.actEnergy          2213400                       # Energy for activate commands per rank (pJ) (Joule)
system.mem_ctrl.dram.rank1.preEnergy          1149885                       # Energy for precharge commands per rank (pJ) (Joule)
system.mem_ctrl.dram.rank1.readEnergy        13151880                       # Energy for read commands per rank (pJ) (Joule)
system.mem_ctrl.dram.rank1.writeEnergy              0                       # Energy for write commands per rank (pJ) (Joule)
system.mem_ctrl.dram.rank1.refreshEnergy 26948890800.000004                       # Energy for refresh commands per rank (pJ) (Joule)
system.mem_ctrl.dram.rank1.actBackEnergy   5045235300                       # Energy for active background per rank (pJ) (Joule)
system.mem_ctrl.dram.rank1.preBackEnergy 126846208800                       # Energy for precharge background per rank (pJ) (Joule)
system.mem_ctrl.dram.rank1.actPowerDownEnergy            0                       # Energy for active power-down per rank (pJ) (Joule)
system.mem_ctrl.dram.rank1.prePowerDownEnergy            0                       # Energy for precharge power-down per rank (pJ) (Joule)
system.mem_ctrl.dram.rank1.selfRefreshEnergy            0                       # Energy for self refresh per rank (pJ) (Joule)
system.mem_ctrl.dram.rank1.totalEnergy   158856850065                       # Total energy per rank (pJ) (Joule)
system.mem_ctrl.dram.rank1.averagePower    465.319886                       # Core power per rank (mW) (Watt)
system.mem_ctrl.dram.rank1.totalIdleTime            0                       # Total Idle time Per DRAM Rank (Tick)
system.mem_ctrl.dram.rank1.pwrStateTime::IDLE 329724937500                       # Time in different power states (Tick)
system.mem_ctrl.dram.rank1.pwrStateTime::REF  11399700000                       # Time in different power states (Tick)
system.mem_ctrl.dram.rank1.pwrStateTime::SREF            0                       # Time in different power states (Tick)
system.mem_ctrl.dram.rank1.pwrStateTime::PRE_PDN            0                       # Time in different power states (Tick)
system.mem_ctrl.dram.rank1.pwrStateTime::ACT    268143500                       # Time in different power states (Tick)
system.mem_ctrl.dram.rank1.pwrStateTime::ACT_PDN            0                       # Time in different power states (Tick)
system.mem_ctrl.power_state.pwrStateResidencyTicks::UNDEFINED 341392781000                       # Cumulative time (in ticks) in various power states (Tick)
system.membus.transDist::ReadResp                3271                       # Transaction distribution (Count)
system.membus.transDist::ReadExReq                585                       # Transaction distribution (Count)
system.membus.transDist::ReadExResp               585                       # Transaction distribution (Count)
system.membus.transDist::ReadSharedReq           3271                       # Transaction distribution (Count)
system.membus.pktCount_system.l2cache.mem_side_port::system.mem_ctrl.port         7712                       # Packet count per connected requestor and responder (Count)
system.membus.pktCount_system.l2cache.mem_side_port::total         7712                       # Packet count per connected requestor and responder (Count)
system.membus.pktCount::total                    7712                       # Packet count per connected requestor and responder (Count)
system.membus.pktSize_system.l2cache.mem_side_port::system.mem_ctrl.port       246784                       # Cumulative packet size per connected requestor and responder (Byte)
system.membus.pktSize_system.l2cache.mem_side_port::total       246784                       # Cumulative packet size per connected requestor and responder (Byte)
system.membus.pktSize::total                   246784                       # Cumulative packet size per connected requestor and responder (Byte)
system.membus.snoops                                0                       # Total snoops (Count)
system.membus.snoopTraffic                          0                       # Total snoop traffic (Byte)
system.membus.snoopFanout::samples               3856                       # Request fanout histogram (Count)
system.membus.snoopFanout::mean                     0                       # Request fanout histogram (Count)
system.membus.snoopFanout::stdev                    0                       # Request fanout histogram (Count)
system.membus.snoopFanout::underflows               0      0.00%      0.00% # Request fanout histogram (Count)
system.membus.snoopFanout::0                     3856    100.00%    100.00% # Request fanout histogram (Count)
system.membus.snoopFanout::1                        0      0.00%    100.00% # Request fanout histogram (Count)
system.membus.snoopFanout::overflows                0      0.00%    100.00% # Request fanout histogram (Count)
system.membus.snoopFanout::min_value                0                       # Request fanout histogram (Count)
system.membus.snoopFanout::max_value                0                       # Request fanout histogram (Count)
system.membus.snoopFanout::total                 3856                       # Request fanout histogram (Count)
system.membus.power_state.pwrStateResidencyTicks::UNDEFINED 341392781000                       # Cumulative time (in ticks) in various power states (Tick)
system.membus.reqLayer2.occupancy             1928000                       # Layer occupancy (ticks) (Tick)
system.membus.reqLayer2.utilization               0.0                       # Layer utilization (Ratio)
system.membus.respLayer0.occupancy           10486750                       # Layer occupancy (ticks) (Tick)
system.membus.respLayer0.utilization              0.0                       # Layer utilization (Ratio)
system.membus.snoop_filter.totRequests           3856                       # Total number of requests made to the snoop filter. (Count)
system.membus.snoop_filter.hitSingleRequests            0                       # Number of requests hitting in the snoop filter with a single holder of the requested data. (Count)
system.membus.snoop_filter.hitMultiRequests            0                       # Number of requests hitting in the snoop filter with multiple (>1) holders of the requested data. (Count)
system.membus.snoop_filter.totSnoops                0                       # Total number of snoops made to the snoop filter. (Count)
system.membus.snoop_filter.hitSingleSnoops            0                       # Number of snoops hitting in the snoop filter with a single holder of the requested data. (Count)
system.membus.snoop_filter.hitMultiSnoops            0                       # Number of snoops hitting in the snoop filter with multiple (>1) holders of the requested data. (Count)
system.workload.inst.arm                            0                       # number of arm instructions executed (Count)
system.workload.inst.quiesce                        0                       # number of quiesce instructions executed (Count)

---------- End Simulation Statistics   ----------
