
---------- Begin Simulation Statistics ----------
simSeconds                                   0.131939                       # Number of seconds simulated (Second)
simTicks                                 131938842500                       # Number of ticks simulated (Tick)
finalTick                                131938842500                       # Number of ticks from beginning of simulation (restored from checkpoints and never reset) (Tick)
simFreq                                  1000000000000                       # The number of ticks per simulated second ((Tick/Second))
hostSeconds                                   2854.63                       # Real time elapsed on the host (Second)
hostTickRate                                 46219257                       # The number of ticks simulated per host second (ticks/s) ((Tick/Second))
hostMemory                                    1215792                       # Number of bytes of host memory used (Byte)
simInsts                                    262991506                       # Number of instructions simulated (Count)
simOps                                      573706032                       # Number of ops (including micro ops) simulated (Count)
hostInstRate                                    92128                       # Simulator instruction rate (inst/s) ((Count/Second))
hostOpRate                                     200974                       # Simulator op (including micro ops) rate (op/s) ((Count/Second))
system.clk_domain.clock                           500                       # Clock period in ticks (Tick)
system.clk_domain.voltage_domain.voltage            1                       # Voltage in Volts (Volt)
system.cpu.numCycles                        263877686                       # Number of cpu cycles simulated (Cycle)
system.cpu.numWorkItemsStarted                      0                       # Number of work items this cpu started (Count)
system.cpu.numWorkItemsCompleted                    0                       # Number of work items this cpu completed (Count)
system.cpu.instsAdded                       684304479                       # Number of instructions added to the IQ (excludes non-spec) (Count)
system.cpu.nonSpecInstsAdded                   170518                       # Number of non-speculative instructions added to the IQ (Count)
system.cpu.instsIssued                      665213084                       # Number of instructions issued (Count)
system.cpu.squashedInstsIssued                  58563                       # Number of squashed instructions issued (Count)
system.cpu.squashedInstsExamined            110768959                       # Number of squashed instructions iterated over during squash; mainly for profiling (Count)
system.cpu.squashedOperandsExamined         141840800                       # Number of squashed operands that are examined and possibly removed from graph (Count)
system.cpu.squashedNonSpecRemoved                  28                       # Number of squashed non-spec instructions that were removed (Count)
system.cpu.numIssuedDist::samples           263550250                       # Number of insts issued each cycle (Count)
system.cpu.numIssuedDist::mean               2.524046                       # Number of insts issued each cycle (Count)
system.cpu.numIssuedDist::stdev              1.921832                       # Number of insts issued each cycle (Count)
system.cpu.numIssuedDist::underflows                0      0.00%      0.00% # Number of insts issued each cycle (Count)
system.cpu.numIssuedDist::0                  62454881     23.70%     23.70% # Number of insts issued each cycle (Count)
system.cpu.numIssuedDist::1                  25381277      9.63%     33.33% # Number of insts issued each cycle (Count)
system.cpu.numIssuedDist::2                  39062876     14.82%     48.15% # Number of insts issued each cycle (Count)
system.cpu.numIssuedDist::3                  50260389     19.07%     67.22% # Number of insts issued each cycle (Count)
system.cpu.numIssuedDist::4                  41594898     15.78%     83.00% # Number of insts issued each cycle (Count)
system.cpu.numIssuedDist::5                  27349815     10.38%     93.38% # Number of insts issued each cycle (Count)
system.cpu.numIssuedDist::6                  14617096      5.55%     98.93% # Number of insts issued each cycle (Count)
system.cpu.numIssuedDist::7                   2538499      0.96%     99.89% # Number of insts issued each cycle (Count)
system.cpu.numIssuedDist::8                    290519      0.11%    100.00% # Number of insts issued each cycle (Count)
system.cpu.numIssuedDist::overflows                 0      0.00%    100.00% # Number of insts issued each cycle (Count)
system.cpu.numIssuedDist::min_value                 0                       # Number of insts issued each cycle (Count)
system.cpu.numIssuedDist::max_value                 8                       # Number of insts issued each cycle (Count)
system.cpu.numIssuedDist::total             263550250                       # Number of insts issued each cycle (Count)
system.cpu.statFuBusy::No_OpClass                   0      0.00%      0.00% # attempts to use FU when none available (Count)
system.cpu.statFuBusy::IntAlu                 2461335     98.82%     98.82% # attempts to use FU when none available (Count)
system.cpu.statFuBusy::IntMult                      0      0.00%     98.82% # attempts to use FU when none available (Count)
system.cpu.statFuBusy::IntDiv                       0      0.00%     98.82% # attempts to use FU when none available (Count)
system.cpu.statFuBusy::FloatAdd                     0      0.00%     98.82% # attempts to use FU when none available (Count)
system.cpu.statFuBusy::FloatCmp                     0      0.00%     98.82% # attempts to use FU when none available (Count)
system.cpu.statFuBusy::FloatCvt                     0      0.00%     98.82% # attempts to use FU when none available (Count)
system.cpu.statFuBusy::FloatMult                    0      0.00%     98.82% # attempts to use FU when none available (Count)
system.cpu.statFuBusy::FloatMultAcc                 0      0.00%     98.82% # attempts to use FU when none available (Count)
system.cpu.statFuBusy::FloatDiv                     0      0.00%     98.82% # attempts to use FU when none available (Count)
system.cpu.statFuBusy::FloatMisc                    0      0.00%     98.82% # attempts to use FU when none available (Count)
system.cpu.statFuBusy::FloatSqrt                    0      0.00%     98.82% # attempts to use FU when none available (Count)
system.cpu.statFuBusy::SimdAdd                      0      0.00%     98.82% # attempts to use FU when none available (Count)
system.cpu.statFuBusy::SimdAddAcc                   0      0.00%     98.82% # attempts to use FU when none available (Count)
system.cpu.statFuBusy::SimdAlu                     12      0.00%     98.82% # attempts to use FU when none available (Count)
system.cpu.statFuBusy::SimdCmp                      0      0.00%     98.82% # attempts to use FU when none available (Count)
system.cpu.statFuBusy::SimdCvt                     10      0.00%     98.82% # attempts to use FU when none available (Count)
system.cpu.statFuBusy::SimdMisc                     1      0.00%     98.82% # attempts to use FU when none available (Count)
system.cpu.statFuBusy::SimdMult                     0      0.00%     98.82% # attempts to use FU when none available (Count)
system.cpu.statFuBusy::SimdMultAcc                  0      0.00%     98.82% # attempts to use FU when none available (Count)
system.cpu.statFuBusy::SimdShift                    7      0.00%     98.82% # attempts to use FU when none available (Count)
system.cpu.statFuBusy::SimdShiftAcc                 0      0.00%     98.82% # attempts to use FU when none available (Count)
system.cpu.statFuBusy::SimdDiv                      0      0.00%     98.82% # attempts to use FU when none available (Count)
system.cpu.statFuBusy::SimdSqrt                     0      0.00%     98.82% # attempts to use FU when none available (Count)
system.cpu.statFuBusy::SimdFloatAdd                 0      0.00%     98.82% # attempts to use FU when none available (Count)
system.cpu.statFuBusy::SimdFloatAlu                 0      0.00%     98.82% # attempts to use FU when none available (Count)
system.cpu.statFuBusy::SimdFloatCmp                 0      0.00%     98.82% # attempts to use FU when none available (Count)
system.cpu.statFuBusy::SimdFloatCvt                 0      0.00%     98.82% # attempts to use FU when none available (Count)
system.cpu.statFuBusy::SimdFloatDiv                 0      0.00%     98.82% # attempts to use FU when none available (Count)
system.cpu.statFuBusy::SimdFloatMisc                0      0.00%     98.82% # attempts to use FU when none available (Count)
system.cpu.statFuBusy::SimdFloatMult                0      0.00%     98.82% # attempts to use FU when none available (Count)
system.cpu.statFuBusy::SimdFloatMultAcc             0      0.00%     98.82% # attempts to use FU when none available (Count)
system.cpu.statFuBusy::SimdFloatSqrt                0      0.00%     98.82% # attempts to use FU when none available (Count)
system.cpu.statFuBusy::SimdReduceAdd                0      0.00%     98.82% # attempts to use FU when none available (Count)
system.cpu.statFuBusy::SimdReduceAlu                0      0.00%     98.82% # attempts to use FU when none available (Count)
system.cpu.statFuBusy::SimdReduceCmp                0      0.00%     98.82% # attempts to use FU when none available (Count)
system.cpu.statFuBusy::SimdFloatReduceAdd            0      0.00%     98.82% # attempts to use FU when none available (Count)
system.cpu.statFuBusy::SimdFloatReduceCmp            0      0.00%     98.82% # attempts to use FU when none available (Count)
system.cpu.statFuBusy::SimdAes                      0      0.00%     98.82% # attempts to use FU when none available (Count)
system.cpu.statFuBusy::SimdAesMix                   0      0.00%     98.82% # attempts to use FU when none available (Count)
system.cpu.statFuBusy::SimdSha1Hash                 0      0.00%     98.82% # attempts to use FU when none available (Count)
system.cpu.statFuBusy::SimdSha1Hash2                0      0.00%     98.82% # attempts to use FU when none available (Count)
system.cpu.statFuBusy::SimdSha256Hash               0      0.00%     98.82% # attempts to use FU when none available (Count)
system.cpu.statFuBusy::SimdSha256Hash2              0      0.00%     98.82% # attempts to use FU when none available (Count)
system.cpu.statFuBusy::SimdShaSigma2                0      0.00%     98.82% # attempts to use FU when none available (Count)
system.cpu.statFuBusy::SimdShaSigma3                0      0.00%     98.82% # attempts to use FU when none available (Count)
system.cpu.statFuBusy::SimdPredAlu                  0      0.00%     98.82% # attempts to use FU when none available (Count)
system.cpu.statFuBusy::MemRead                  28848      1.16%     99.98% # attempts to use FU when none available (Count)
system.cpu.statFuBusy::MemWrite                   277      0.01%     99.99% # attempts to use FU when none available (Count)
system.cpu.statFuBusy::FloatMemRead                16      0.00%     99.99% # attempts to use FU when none available (Count)
system.cpu.statFuBusy::FloatMemWrite              139      0.01%    100.00% # attempts to use FU when none available (Count)
system.cpu.statFuBusy::IprAccess                    0      0.00%    100.00% # attempts to use FU when none available (Count)
system.cpu.statFuBusy::InstPrefetch                 0      0.00%    100.00% # attempts to use FU when none available (Count)
system.cpu.statIssuedInstType_0::No_OpClass     12477796      1.88%      1.88% # Number of instructions issued per FU type, per thread (Count)
system.cpu.statIssuedInstType_0::IntAlu     517806258     77.84%     79.72% # Number of instructions issued per FU type, per thread (Count)
system.cpu.statIssuedInstType_0::IntMult        62762      0.01%     79.73% # Number of instructions issued per FU type, per thread (Count)
system.cpu.statIssuedInstType_0::IntDiv          1628      0.00%     79.73% # Number of instructions issued per FU type, per thread (Count)
system.cpu.statIssuedInstType_0::FloatAdd        53466      0.01%     79.73% # Number of instructions issued per FU type, per thread (Count)
system.cpu.statIssuedInstType_0::FloatCmp            0      0.00%     79.73% # Number of instructions issued per FU type, per thread (Count)
system.cpu.statIssuedInstType_0::FloatCvt           32      0.00%     79.73% # Number of instructions issued per FU type, per thread (Count)
system.cpu.statIssuedInstType_0::FloatMult            0      0.00%     79.73% # Number of instructions issued per FU type, per thread (Count)
system.cpu.statIssuedInstType_0::FloatMultAcc            0      0.00%     79.73% # Number of instructions issued per FU type, per thread (Count)
system.cpu.statIssuedInstType_0::FloatDiv            0      0.00%     79.73% # Number of instructions issued per FU type, per thread (Count)
system.cpu.statIssuedInstType_0::FloatMisc            0      0.00%     79.73% # Number of instructions issued per FU type, per thread (Count)
system.cpu.statIssuedInstType_0::FloatSqrt            0      0.00%     79.73% # Number of instructions issued per FU type, per thread (Count)
system.cpu.statIssuedInstType_0::SimdAdd          448      0.00%     79.73% # Number of instructions issued per FU type, per thread (Count)
system.cpu.statIssuedInstType_0::SimdAddAcc            0      0.00%     79.73% # Number of instructions issued per FU type, per thread (Count)
system.cpu.statIssuedInstType_0::SimdAlu       114833      0.02%     79.75% # Number of instructions issued per FU type, per thread (Count)
system.cpu.statIssuedInstType_0::SimdCmp            0      0.00%     79.75% # Number of instructions issued per FU type, per thread (Count)
system.cpu.statIssuedInstType_0::SimdCvt       114695      0.02%     79.77% # Number of instructions issued per FU type, per thread (Count)
system.cpu.statIssuedInstType_0::SimdMisc       281206      0.04%     79.81% # Number of instructions issued per FU type, per thread (Count)
system.cpu.statIssuedInstType_0::SimdMult            0      0.00%     79.81% # Number of instructions issued per FU type, per thread (Count)
system.cpu.statIssuedInstType_0::SimdMultAcc            0      0.00%     79.81% # Number of instructions issued per FU type, per thread (Count)
system.cpu.statIssuedInstType_0::SimdShift          443      0.00%     79.81% # Number of instructions issued per FU type, per thread (Count)
system.cpu.statIssuedInstType_0::SimdShiftAcc            0      0.00%     79.81% # Number of instructions issued per FU type, per thread (Count)
system.cpu.statIssuedInstType_0::SimdDiv            0      0.00%     79.81% # Number of instructions issued per FU type, per thread (Count)
system.cpu.statIssuedInstType_0::SimdSqrt            0      0.00%     79.81% # Number of instructions issued per FU type, per thread (Count)
system.cpu.statIssuedInstType_0::SimdFloatAdd            0      0.00%     79.81% # Number of instructions issued per FU type, per thread (Count)
system.cpu.statIssuedInstType_0::SimdFloatAlu            0      0.00%     79.81% # Number of instructions issued per FU type, per thread (Count)
system.cpu.statIssuedInstType_0::SimdFloatCmp            0      0.00%     79.81% # Number of instructions issued per FU type, per thread (Count)
system.cpu.statIssuedInstType_0::SimdFloatCvt            0      0.00%     79.81% # Number of instructions issued per FU type, per thread (Count)
system.cpu.statIssuedInstType_0::SimdFloatDiv            0      0.00%     79.81% # Number of instructions issued per FU type, per thread (Count)
system.cpu.statIssuedInstType_0::SimdFloatMisc            0      0.00%     79.81% # Number of instructions issued per FU type, per thread (Count)
system.cpu.statIssuedInstType_0::SimdFloatMult            0      0.00%     79.81% # Number of instructions issued per FU type, per thread (Count)
system.cpu.statIssuedInstType_0::SimdFloatMultAcc            0      0.00%     79.81% # Number of instructions issued per FU type, per thread (Count)
system.cpu.statIssuedInstType_0::SimdFloatSqrt            0      0.00%     79.81% # Number of instructions issued per FU type, per thread (Count)
system.cpu.statIssuedInstType_0::SimdReduceAdd            0      0.00%     79.81% # Number of instructions issued per FU type, per thread (Count)
system.cpu.statIssuedInstType_0::SimdReduceAlu            0      0.00%     79.81% # Number of instructions issued per FU type, per thread (Count)
system.cpu.statIssuedInstType_0::SimdReduceCmp            0      0.00%     79.81% # Number of instructions issued per FU type, per thread (Count)
system.cpu.statIssuedInstType_0::SimdFloatReduceAdd            0      0.00%     79.81% # Number of instructions issued per FU type, per thread (Count)
system.cpu.statIssuedInstType_0::SimdFloatReduceCmp            0      0.00%     79.81% # Number of instructions issued per FU type, per thread (Count)
system.cpu.statIssuedInstType_0::SimdAes            0      0.00%     79.81% # Number of instructions issued per FU type, per thread (Count)
system.cpu.statIssuedInstType_0::SimdAesMix            0      0.00%     79.81% # Number of instructions issued per FU type, per thread (Count)
system.cpu.statIssuedInstType_0::SimdSha1Hash            0      0.00%     79.81% # Number of instructions issued per FU type, per thread (Count)
system.cpu.statIssuedInstType_0::SimdSha1Hash2            0      0.00%     79.81% # Number of instructions issued per FU type, per thread (Count)
system.cpu.statIssuedInstType_0::SimdSha256Hash            0      0.00%     79.81% # Number of instructions issued per FU type, per thread (Count)
system.cpu.statIssuedInstType_0::SimdSha256Hash2            0      0.00%     79.81% # Number of instructions issued per FU type, per thread (Count)
system.cpu.statIssuedInstType_0::SimdShaSigma2            0      0.00%     79.81% # Number of instructions issued per FU type, per thread (Count)
system.cpu.statIssuedInstType_0::SimdShaSigma3            0      0.00%     79.81% # Number of instructions issued per FU type, per thread (Count)
system.cpu.statIssuedInstType_0::SimdPredAlu            0      0.00%     79.81% # Number of instructions issued per FU type, per thread (Count)
system.cpu.statIssuedInstType_0::MemRead     88892435     13.36%     93.17% # Number of instructions issued per FU type, per thread (Count)
system.cpu.statIssuedInstType_0::MemWrite     45204734      6.80%     99.97% # Number of instructions issued per FU type, per thread (Count)
system.cpu.statIssuedInstType_0::FloatMemRead        86873      0.01%     99.98% # Number of instructions issued per FU type, per thread (Count)
system.cpu.statIssuedInstType_0::FloatMemWrite       115475      0.02%    100.00% # Number of instructions issued per FU type, per thread (Count)
system.cpu.statIssuedInstType_0::IprAccess            0      0.00%    100.00% # Number of instructions issued per FU type, per thread (Count)
system.cpu.statIssuedInstType_0::InstPrefetch            0      0.00%    100.00% # Number of instructions issued per FU type, per thread (Count)
system.cpu.statIssuedInstType_0::total      665213084                       # Number of instructions issued per FU type, per thread (Count)
system.cpu.issueRate                         2.520914                       # Inst issue rate ((Count/Cycle))
system.cpu.fuBusy                             2490645                       # FU busy when requested (Count)
system.cpu.fuBusyRate                        0.003744                       # FU busy rate (busy events/executed inst) ((Count/Count))
system.cpu.intInstQueueReads               1594790878                       # Number of integer instruction queue reads (Count)
system.cpu.intInstQueueWrites               794250276                       # Number of integer instruction queue writes (Count)
system.cpu.intInstQueueWakeupAccesses       646587838                       # Number of integer instruction queue wakeup accesses (Count)
system.cpu.fpInstQueueReads                   1734748                       # Number of floating instruction queue reads (Count)
system.cpu.fpInstQueueWrites                   993907                       # Number of floating instruction queue writes (Count)
system.cpu.fpInstQueueWakeupAccesses           856424                       # Number of floating instruction queue wakeup accesses (Count)
system.cpu.vecInstQueueReads                        0                       # Number of vector instruction queue reads (Count)
system.cpu.vecInstQueueWrites                       0                       # Number of vector instruction queue writes (Count)
system.cpu.vecInstQueueWakeupAccesses               0                       # Number of vector instruction queue wakeup accesses (Count)
system.cpu.intAluAccesses                   654358474                       # Number of integer alu accesses (Count)
system.cpu.fpAluAccesses                       867459                       # Number of floating point alu accesses (Count)
system.cpu.vecAluAccesses                           0                       # Number of vector alu accesses (Count)
system.cpu.numInsts                         652021116                       # Number of executed instructions (Count)
system.cpu.numLoadInsts                      86873443                       # Number of load instructions executed (Count)
system.cpu.numSquashedInsts                  13191968                       # Number of squashed instructions skipped in execute (Count)
system.cpu.numSwp                                   0                       # Number of swp insts executed (Count)
system.cpu.numNop                                   0                       # Number of nop insts executed (Count)
system.cpu.numRefs                          131044687                       # Number of memory reference insts executed (Count)
system.cpu.numBranches                       60619447                       # Number of branches executed (Count)
system.cpu.numStoreInsts                     44171244                       # Number of stores executed (Count)
system.cpu.numRate                           2.470922                       # Inst execution rate ((Count/Cycle))
system.cpu.timesIdled                           89712                       # Number of times that the entire CPU went into an idle state and unscheduled itself (Count)
system.cpu.idleCycles                          327436                       # Total number of cycles that the CPU has spent unscheduled due to idling (Cycle)
system.cpu.committedInsts                   262991506                       # Number of Instructions Simulated (Count)
system.cpu.committedOps                     573706032                       # Number of Ops (including micro ops) Simulated (Count)
system.cpu.cpi                               1.003370                       # CPI: Cycles Per Instruction ((Cycle/Count))
system.cpu.totalCpi                          1.003370                       # CPI: Total CPI of All Threads ((Cycle/Count))
system.cpu.ipc                               0.996642                       # IPC: Instructions Per Cycle ((Count/Cycle))
system.cpu.totalIpc                          0.996642                       # IPC: Total IPC of All Threads ((Count/Cycle))
system.cpu.intRegfileReads                  721624115                       # Number of integer regfile reads (Count)
system.cpu.intRegfileWrites                 486967179                       # Number of integer regfile writes (Count)
system.cpu.fpRegfileReads                     1389097                       # Number of floating regfile reads (Count)
system.cpu.fpRegfileWrites                     683649                       # Number of floating regfile writes (Count)
system.cpu.ccRegfileReads                   228973414                       # number of cc regfile reads (Count)
system.cpu.ccRegfileWrites                  233411373                       # number of cc regfile writes (Count)
system.cpu.miscRegfileReads                 278962098                       # number of misc regfile reads (Count)
system.cpu.miscRegfileWrites                       18                       # number of misc regfile writes (Count)
system.cpu.MemDepUnit__0.insertedLoads       89965390                       # Number of loads inserted to the mem dependence unit. (Count)
system.cpu.MemDepUnit__0.insertedStores      47100355                       # Number of stores inserted to the mem dependence unit. (Count)
system.cpu.MemDepUnit__0.conflictingLoads       294985                       # Number of conflicting loads. (Count)
system.cpu.MemDepUnit__0.conflictingStores       224091                       # Number of conflicting stores. (Count)
system.cpu.MemDepUnit__1.insertedLoads              0                       # Number of loads inserted to the mem dependence unit. (Count)
system.cpu.MemDepUnit__1.insertedStores             0                       # Number of stores inserted to the mem dependence unit. (Count)
system.cpu.MemDepUnit__1.conflictingLoads            0                       # Number of conflicting loads. (Count)
system.cpu.MemDepUnit__1.conflictingStores            0                       # Number of conflicting stores. (Count)
system.cpu.MemDepUnit__2.insertedLoads              0                       # Number of loads inserted to the mem dependence unit. (Count)
system.cpu.MemDepUnit__2.insertedStores             0                       # Number of stores inserted to the mem dependence unit. (Count)
system.cpu.MemDepUnit__2.conflictingLoads            0                       # Number of conflicting loads. (Count)
system.cpu.MemDepUnit__2.conflictingStores            0                       # Number of conflicting stores. (Count)
system.cpu.MemDepUnit__3.insertedLoads              0                       # Number of loads inserted to the mem dependence unit. (Count)
system.cpu.MemDepUnit__3.insertedStores             0                       # Number of stores inserted to the mem dependence unit. (Count)
system.cpu.MemDepUnit__3.conflictingLoads            0                       # Number of conflicting loads. (Count)
system.cpu.MemDepUnit__3.conflictingStores            0                       # Number of conflicting stores. (Count)
system.cpu.branchPred.lookups                86435842                       # Number of BP lookups (Count)
system.cpu.branchPred.condPredicted          67117437                       # Number of conditional branches predicted (Count)
system.cpu.branchPred.condIncorrect           5771632                       # Number of conditional branches incorrect (Count)
system.cpu.branchPred.BTBLookups             55005562                       # Number of BTB lookups (Count)
system.cpu.branchPred.BTBUpdates              2049843                       # Number of BTB updates (Count)
system.cpu.branchPred.BTBHits                54990415                       # Number of BTB hits (Count)
system.cpu.branchPred.BTBHitRatio            0.999725                       # BTB Hit Ratio (Ratio)
system.cpu.branchPred.RASUsed                 6325614                       # Number of times the RAS was used to get a target. (Count)
system.cpu.branchPred.RASIncorrect                 13                       # Number of incorrect RAS predictions. (Count)
system.cpu.branchPred.indirectLookups         4748061                       # Number of indirect predictor lookups. (Count)
system.cpu.branchPred.indirectHits            4744204                       # Number of indirect target hits. (Count)
system.cpu.branchPred.indirectMisses             3857                       # Number of indirect misses. (Count)
system.cpu.branchPred.indirectMispredicted        28793                       # Number of mispredicted indirect branches. (Count)
system.cpu.commit.commitSquashedInsts       110276108                       # The number of squashed insts skipped by commit (Count)
system.cpu.commit.commitNonSpecStalls          170490                       # The number of times commit has been forced to stall to communicate backwards (Count)
system.cpu.commit.branchMispredicts           5771141                       # The number of times a branch was mispredicted (Count)
system.cpu.commit.numCommittedDist::samples    247348049                       # Number of insts commited each cycle (Count)
system.cpu.commit.numCommittedDist::mean     2.319428                       # Number of insts commited each cycle (Count)
system.cpu.commit.numCommittedDist::stdev     2.463334                       # Number of insts commited each cycle (Count)
system.cpu.commit.numCommittedDist::underflows            0      0.00%      0.00% # Number of insts commited each cycle (Count)
system.cpu.commit.numCommittedDist::0        77564959     31.36%     31.36% # Number of insts commited each cycle (Count)
system.cpu.commit.numCommittedDist::1        39994317     16.17%     47.53% # Number of insts commited each cycle (Count)
system.cpu.commit.numCommittedDist::2        29803673     12.05%     59.58% # Number of insts commited each cycle (Count)
system.cpu.commit.numCommittedDist::3        49261598     19.92%     79.49% # Number of insts commited each cycle (Count)
system.cpu.commit.numCommittedDist::4         9605951      3.88%     83.38% # Number of insts commited each cycle (Count)
system.cpu.commit.numCommittedDist::5         7398109      2.99%     86.37% # Number of insts commited each cycle (Count)
system.cpu.commit.numCommittedDist::6         7539973      3.05%     89.42% # Number of insts commited each cycle (Count)
system.cpu.commit.numCommittedDist::7         3770364      1.52%     90.94% # Number of insts commited each cycle (Count)
system.cpu.commit.numCommittedDist::8        22409105      9.06%    100.00% # Number of insts commited each cycle (Count)
system.cpu.commit.numCommittedDist::overflows            0      0.00%    100.00% # Number of insts commited each cycle (Count)
system.cpu.commit.numCommittedDist::min_value            0                       # Number of insts commited each cycle (Count)
system.cpu.commit.numCommittedDist::max_value            8                       # Number of insts commited each cycle (Count)
system.cpu.commit.numCommittedDist::total    247348049                       # Number of insts commited each cycle (Count)
system.cpu.commit.instsCommitted            262991506                       # Number of instructions committed (Count)
system.cpu.commit.opsCommitted              573706032                       # Number of ops (including micro ops) committed (Count)
system.cpu.commit.memRefs                   117966259                       # Number of memory references committed (Count)
system.cpu.commit.loads                      78324425                       # Number of loads committed (Count)
system.cpu.commit.amos                              0                       # Number of atomic instructions committed (Count)
system.cpu.commit.membars                      113648                       # Number of memory barriers committed (Count)
system.cpu.commit.branches                   57393783                       # Number of branches committed (Count)
system.cpu.commit.vectorInstructions                0                       # Number of committed Vector instructions. (Count)
system.cpu.commit.floating                     844373                       # Number of committed floating point instructions. (Count)
system.cpu.commit.integer                   562364996                       # Number of committed integer instructions. (Count)
system.cpu.commit.functionCalls               5372673                       # Number of function calls committed. (Count)
system.cpu.commit.committedInstType_0::No_OpClass     10640772      1.85%      1.85% # Class of committed instruction (Count)
system.cpu.commit.committedInstType_0::IntAlu    444494034     77.48%     79.33% # Class of committed instruction (Count)
system.cpu.commit.committedInstType_0::IntMult        59920      0.01%     79.34% # Class of committed instruction (Count)
system.cpu.commit.committedInstType_0::IntDiv         1501      0.00%     79.34% # Class of committed instruction (Count)
system.cpu.commit.committedInstType_0::FloatAdd        43052      0.01%     79.35% # Class of committed instruction (Count)
system.cpu.commit.committedInstType_0::FloatCmp            0      0.00%     79.35% # Class of committed instruction (Count)
system.cpu.commit.committedInstType_0::FloatCvt           32      0.00%     79.35% # Class of committed instruction (Count)
system.cpu.commit.committedInstType_0::FloatMult            0      0.00%     79.35% # Class of committed instruction (Count)
system.cpu.commit.committedInstType_0::FloatMultAcc            0      0.00%     79.35% # Class of committed instruction (Count)
system.cpu.commit.committedInstType_0::FloatDiv            0      0.00%     79.35% # Class of committed instruction (Count)
system.cpu.commit.committedInstType_0::FloatMisc            0      0.00%     79.35% # Class of committed instruction (Count)
system.cpu.commit.committedInstType_0::FloatSqrt            0      0.00%     79.35% # Class of committed instruction (Count)
system.cpu.commit.committedInstType_0::SimdAdd          382      0.00%     79.35% # Class of committed instruction (Count)
system.cpu.commit.committedInstType_0::SimdAddAcc            0      0.00%     79.35% # Class of committed instruction (Count)
system.cpu.commit.committedInstType_0::SimdAlu       114491      0.02%     79.37% # Class of committed instruction (Count)
system.cpu.commit.committedInstType_0::SimdCmp            0      0.00%     79.37% # Class of committed instruction (Count)
system.cpu.commit.committedInstType_0::SimdCvt       114516      0.02%     79.39% # Class of committed instruction (Count)
system.cpu.commit.committedInstType_0::SimdMisc       270865      0.05%     79.44% # Class of committed instruction (Count)
system.cpu.commit.committedInstType_0::SimdMult            0      0.00%     79.44% # Class of committed instruction (Count)
system.cpu.commit.committedInstType_0::SimdMultAcc            0      0.00%     79.44% # Class of committed instruction (Count)
system.cpu.commit.committedInstType_0::SimdShift          208      0.00%     79.44% # Class of committed instruction (Count)
system.cpu.commit.committedInstType_0::SimdShiftAcc            0      0.00%     79.44% # Class of committed instruction (Count)
system.cpu.commit.committedInstType_0::SimdDiv            0      0.00%     79.44% # Class of committed instruction (Count)
system.cpu.commit.committedInstType_0::SimdSqrt            0      0.00%     79.44% # Class of committed instruction (Count)
system.cpu.commit.committedInstType_0::SimdFloatAdd            0      0.00%     79.44% # Class of committed instruction (Count)
system.cpu.commit.committedInstType_0::SimdFloatAlu            0      0.00%     79.44% # Class of committed instruction (Count)
system.cpu.commit.committedInstType_0::SimdFloatCmp            0      0.00%     79.44% # Class of committed instruction (Count)
system.cpu.commit.committedInstType_0::SimdFloatCvt            0      0.00%     79.44% # Class of committed instruction (Count)
system.cpu.commit.committedInstType_0::SimdFloatDiv            0      0.00%     79.44% # Class of committed instruction (Count)
system.cpu.commit.committedInstType_0::SimdFloatMisc            0      0.00%     79.44% # Class of committed instruction (Count)
system.cpu.commit.committedInstType_0::SimdFloatMult            0      0.00%     79.44% # Class of committed instruction (Count)
system.cpu.commit.committedInstType_0::SimdFloatMultAcc            0      0.00%     79.44% # Class of committed instruction (Count)
system.cpu.commit.committedInstType_0::SimdFloatSqrt            0      0.00%     79.44% # Class of committed instruction (Count)
system.cpu.commit.committedInstType_0::SimdReduceAdd            0      0.00%     79.44% # Class of committed instruction (Count)
system.cpu.commit.committedInstType_0::SimdReduceAlu            0      0.00%     79.44% # Class of committed instruction (Count)
system.cpu.commit.committedInstType_0::SimdReduceCmp            0      0.00%     79.44% # Class of committed instruction (Count)
system.cpu.commit.committedInstType_0::SimdFloatReduceAdd            0      0.00%     79.44% # Class of committed instruction (Count)
system.cpu.commit.committedInstType_0::SimdFloatReduceCmp            0      0.00%     79.44% # Class of committed instruction (Count)
system.cpu.commit.committedInstType_0::SimdAes            0      0.00%     79.44% # Class of committed instruction (Count)
system.cpu.commit.committedInstType_0::SimdAesMix            0      0.00%     79.44% # Class of committed instruction (Count)
system.cpu.commit.committedInstType_0::SimdSha1Hash            0      0.00%     79.44% # Class of committed instruction (Count)
system.cpu.commit.committedInstType_0::SimdSha1Hash2            0      0.00%     79.44% # Class of committed instruction (Count)
system.cpu.commit.committedInstType_0::SimdSha256Hash            0      0.00%     79.44% # Class of committed instruction (Count)
system.cpu.commit.committedInstType_0::SimdSha256Hash2            0      0.00%     79.44% # Class of committed instruction (Count)
system.cpu.commit.committedInstType_0::SimdShaSigma2            0      0.00%     79.44% # Class of committed instruction (Count)
system.cpu.commit.committedInstType_0::SimdShaSigma3            0      0.00%     79.44% # Class of committed instruction (Count)
system.cpu.commit.committedInstType_0::SimdPredAlu            0      0.00%     79.44% # Class of committed instruction (Count)
system.cpu.commit.committedInstType_0::MemRead     78238160     13.64%     93.08% # Class of committed instruction (Count)
system.cpu.commit.committedInstType_0::MemWrite     39527040      6.89%     99.96% # Class of committed instruction (Count)
system.cpu.commit.committedInstType_0::FloatMemRead        86265      0.02%     99.98% # Class of committed instruction (Count)
system.cpu.commit.committedInstType_0::FloatMemWrite       114794      0.02%    100.00% # Class of committed instruction (Count)
system.cpu.commit.committedInstType_0::IprAccess            0      0.00%    100.00% # Class of committed instruction (Count)
system.cpu.commit.committedInstType_0::InstPrefetch            0      0.00%    100.00% # Class of committed instruction (Count)
system.cpu.commit.committedInstType_0::total    573706032                       # Class of committed instruction (Count)
system.cpu.commit.commitEligibleSamples      22409105                       # number cycles where commit BW limit reached (Cycle)
system.cpu.dcache.demandHits::cpu.data      122047233                       # number of demand (read+write) hits (Count)
system.cpu.dcache.demandHits::total         122047233                       # number of demand (read+write) hits (Count)
system.cpu.dcache.overallHits::cpu.data     122047233                       # number of overall hits (Count)
system.cpu.dcache.overallHits::total        122047233                       # number of overall hits (Count)
system.cpu.dcache.demandMisses::cpu.data         5104                       # number of demand (read+write) misses (Count)
system.cpu.dcache.demandMisses::total            5104                       # number of demand (read+write) misses (Count)
system.cpu.dcache.overallMisses::cpu.data         5104                       # number of overall misses (Count)
system.cpu.dcache.overallMisses::total           5104                       # number of overall misses (Count)
system.cpu.dcache.demandMissLatency::cpu.data    347267000                       # number of demand (read+write) miss ticks (Tick)
system.cpu.dcache.demandMissLatency::total    347267000                       # number of demand (read+write) miss ticks (Tick)
system.cpu.dcache.overallMissLatency::cpu.data    347267000                       # number of overall miss ticks (Tick)
system.cpu.dcache.overallMissLatency::total    347267000                       # number of overall miss ticks (Tick)
system.cpu.dcache.demandAccesses::cpu.data    122052337                       # number of demand (read+write) accesses (Count)
system.cpu.dcache.demandAccesses::total     122052337                       # number of demand (read+write) accesses (Count)
system.cpu.dcache.overallAccesses::cpu.data    122052337                       # number of overall (read+write) accesses (Count)
system.cpu.dcache.overallAccesses::total    122052337                       # number of overall (read+write) accesses (Count)
system.cpu.dcache.demandMissRate::cpu.data     0.000042                       # miss rate for demand accesses (Ratio)
system.cpu.dcache.demandMissRate::total      0.000042                       # miss rate for demand accesses (Ratio)
system.cpu.dcache.overallMissRate::cpu.data     0.000042                       # miss rate for overall accesses (Ratio)
system.cpu.dcache.overallMissRate::total     0.000042                       # miss rate for overall accesses (Ratio)
system.cpu.dcache.demandAvgMissLatency::cpu.data 68038.205329                       # average overall miss latency in ticks ((Tick/Count))
system.cpu.dcache.demandAvgMissLatency::total 68038.205329                       # average overall miss latency in ticks ((Tick/Count))
system.cpu.dcache.overallAvgMissLatency::cpu.data 68038.205329                       # average overall miss latency ((Tick/Count))
system.cpu.dcache.overallAvgMissLatency::total 68038.205329                       # average overall miss latency ((Tick/Count))
system.cpu.dcache.blockedCycles::no_mshrs          816                       # number of cycles access was blocked (Cycle)
system.cpu.dcache.blockedCycles::no_targets            0                       # number of cycles access was blocked (Cycle)
system.cpu.dcache.blockedCauses::no_mshrs           24                       # number of times access was blocked (Count)
system.cpu.dcache.blockedCauses::no_targets            0                       # number of times access was blocked (Count)
system.cpu.dcache.avgBlocked::no_mshrs             34                       # average number of cycles each access was blocked ((Cycle/Count))
system.cpu.dcache.avgBlocked::no_targets          nan                       # average number of cycles each access was blocked ((Cycle/Count))
system.cpu.dcache.writebacks::writebacks          414                       # number of writebacks (Count)
system.cpu.dcache.writebacks::total               414                       # number of writebacks (Count)
system.cpu.dcache.demandMshrHits::cpu.data         2994                       # number of demand (read+write) MSHR hits (Count)
system.cpu.dcache.demandMshrHits::total          2994                       # number of demand (read+write) MSHR hits (Count)
system.cpu.dcache.overallMshrHits::cpu.data         2994                       # number of overall MSHR hits (Count)
system.cpu.dcache.overallMshrHits::total         2994                       # number of overall MSHR hits (Count)
system.cpu.dcache.demandMshrMisses::cpu.data         2110                       # number of demand (read+write) MSHR misses (Count)
system.cpu.dcache.demandMshrMisses::total         2110                       # number of demand (read+write) MSHR misses (Count)
system.cpu.dcache.overallMshrMisses::cpu.data         2110                       # number of overall MSHR misses (Count)
system.cpu.dcache.overallMshrMisses::total         2110                       # number of overall MSHR misses (Count)
system.cpu.dcache.demandMshrMissLatency::cpu.data    142031000                       # number of demand (read+write) MSHR miss ticks (Tick)
system.cpu.dcache.demandMshrMissLatency::total    142031000                       # number of demand (read+write) MSHR miss ticks (Tick)
system.cpu.dcache.overallMshrMissLatency::cpu.data    142031000                       # number of overall MSHR miss ticks (Tick)
system.cpu.dcache.overallMshrMissLatency::total    142031000                       # number of overall MSHR miss ticks (Tick)
system.cpu.dcache.demandMshrMissRate::cpu.data     0.000017                       # mshr miss ratio for demand accesses (Ratio)
system.cpu.dcache.demandMshrMissRate::total     0.000017                       # mshr miss ratio for demand accesses (Ratio)
system.cpu.dcache.overallMshrMissRate::cpu.data     0.000017                       # mshr miss ratio for overall accesses (Ratio)
system.cpu.dcache.overallMshrMissRate::total     0.000017                       # mshr miss ratio for overall accesses (Ratio)
system.cpu.dcache.demandAvgMshrMissLatency::cpu.data 67313.270142                       # average overall mshr miss latency ((Tick/Count))
system.cpu.dcache.demandAvgMshrMissLatency::total 67313.270142                       # average overall mshr miss latency ((Tick/Count))
system.cpu.dcache.overallAvgMshrMissLatency::cpu.data 67313.270142                       # average overall mshr miss latency ((Tick/Count))
system.cpu.dcache.overallAvgMshrMissLatency::total 67313.270142                       # average overall mshr miss latency ((Tick/Count))
system.cpu.dcache.replacements                   1109                       # number of replacements (Count)
system.cpu.dcache.LockedRMWReadReq.hits::cpu.data        56821                       # number of LockedRMWReadReq hits (Count)
system.cpu.dcache.LockedRMWReadReq.hits::total        56821                       # number of LockedRMWReadReq hits (Count)
system.cpu.dcache.LockedRMWReadReq.misses::cpu.data            3                       # number of LockedRMWReadReq misses (Count)
system.cpu.dcache.LockedRMWReadReq.misses::total            3                       # number of LockedRMWReadReq misses (Count)
system.cpu.dcache.LockedRMWReadReq.missLatency::cpu.data       106500                       # number of LockedRMWReadReq miss ticks (Tick)
system.cpu.dcache.LockedRMWReadReq.missLatency::total       106500                       # number of LockedRMWReadReq miss ticks (Tick)
system.cpu.dcache.LockedRMWReadReq.accesses::cpu.data        56824                       # number of LockedRMWReadReq accesses(hits+misses) (Count)
system.cpu.dcache.LockedRMWReadReq.accesses::total        56824                       # number of LockedRMWReadReq accesses(hits+misses) (Count)
system.cpu.dcache.LockedRMWReadReq.missRate::cpu.data     0.000053                       # miss rate for LockedRMWReadReq accesses (Ratio)
system.cpu.dcache.LockedRMWReadReq.missRate::total     0.000053                       # miss rate for LockedRMWReadReq accesses (Ratio)
system.cpu.dcache.LockedRMWReadReq.avgMissLatency::cpu.data        35500                       # average LockedRMWReadReq miss latency ((Tick/Count))
system.cpu.dcache.LockedRMWReadReq.avgMissLatency::total        35500                       # average LockedRMWReadReq miss latency ((Tick/Count))
system.cpu.dcache.LockedRMWReadReq.mshrMisses::cpu.data            3                       # number of LockedRMWReadReq MSHR misses (Count)
system.cpu.dcache.LockedRMWReadReq.mshrMisses::total            3                       # number of LockedRMWReadReq MSHR misses (Count)
system.cpu.dcache.LockedRMWReadReq.mshrMissLatency::cpu.data    213297000                       # number of LockedRMWReadReq MSHR miss ticks (Tick)
system.cpu.dcache.LockedRMWReadReq.mshrMissLatency::total    213297000                       # number of LockedRMWReadReq MSHR miss ticks (Tick)
system.cpu.dcache.LockedRMWReadReq.mshrMissRate::cpu.data     0.000053                       # mshr miss rate for LockedRMWReadReq accesses (Ratio)
system.cpu.dcache.LockedRMWReadReq.mshrMissRate::total     0.000053                       # mshr miss rate for LockedRMWReadReq accesses (Ratio)
system.cpu.dcache.LockedRMWReadReq.avgMshrMissLatency::cpu.data     71099000                       # average LockedRMWReadReq mshr miss latency ((Tick/Count))
system.cpu.dcache.LockedRMWReadReq.avgMshrMissLatency::total     71099000                       # average LockedRMWReadReq mshr miss latency ((Tick/Count))
system.cpu.dcache.LockedRMWWriteReq.hits::cpu.data        56824                       # number of LockedRMWWriteReq hits (Count)
system.cpu.dcache.LockedRMWWriteReq.hits::total        56824                       # number of LockedRMWWriteReq hits (Count)
system.cpu.dcache.LockedRMWWriteReq.accesses::cpu.data        56824                       # number of LockedRMWWriteReq accesses(hits+misses) (Count)
system.cpu.dcache.LockedRMWWriteReq.accesses::total        56824                       # number of LockedRMWWriteReq accesses(hits+misses) (Count)
system.cpu.dcache.ReadReq.hits::cpu.data     82462846                       # number of ReadReq hits (Count)
system.cpu.dcache.ReadReq.hits::total        82462846                       # number of ReadReq hits (Count)
system.cpu.dcache.ReadReq.misses::cpu.data         4480                       # number of ReadReq misses (Count)
system.cpu.dcache.ReadReq.misses::total          4480                       # number of ReadReq misses (Count)
system.cpu.dcache.ReadReq.missLatency::cpu.data    303141500                       # number of ReadReq miss ticks (Tick)
system.cpu.dcache.ReadReq.missLatency::total    303141500                       # number of ReadReq miss ticks (Tick)
system.cpu.dcache.ReadReq.accesses::cpu.data     82467326                       # number of ReadReq accesses(hits+misses) (Count)
system.cpu.dcache.ReadReq.accesses::total     82467326                       # number of ReadReq accesses(hits+misses) (Count)
system.cpu.dcache.ReadReq.missRate::cpu.data     0.000054                       # miss rate for ReadReq accesses (Ratio)
system.cpu.dcache.ReadReq.missRate::total     0.000054                       # miss rate for ReadReq accesses (Ratio)
system.cpu.dcache.ReadReq.avgMissLatency::cpu.data 67665.513393                       # average ReadReq miss latency ((Tick/Count))
system.cpu.dcache.ReadReq.avgMissLatency::total 67665.513393                       # average ReadReq miss latency ((Tick/Count))
system.cpu.dcache.ReadReq.mshrHits::cpu.data         2992                       # number of ReadReq MSHR hits (Count)
system.cpu.dcache.ReadReq.mshrHits::total         2992                       # number of ReadReq MSHR hits (Count)
system.cpu.dcache.ReadReq.mshrMisses::cpu.data         1488                       # number of ReadReq MSHR misses (Count)
system.cpu.dcache.ReadReq.mshrMisses::total         1488                       # number of ReadReq MSHR misses (Count)
system.cpu.dcache.ReadReq.mshrMissLatency::cpu.data     98662000                       # number of ReadReq MSHR miss ticks (Tick)
system.cpu.dcache.ReadReq.mshrMissLatency::total     98662000                       # number of ReadReq MSHR miss ticks (Tick)
system.cpu.dcache.ReadReq.mshrMissRate::cpu.data     0.000018                       # mshr miss rate for ReadReq accesses (Ratio)
system.cpu.dcache.ReadReq.mshrMissRate::total     0.000018                       # mshr miss rate for ReadReq accesses (Ratio)
system.cpu.dcache.ReadReq.avgMshrMissLatency::cpu.data 66305.107527                       # average ReadReq mshr miss latency ((Tick/Count))
system.cpu.dcache.ReadReq.avgMshrMissLatency::total 66305.107527                       # average ReadReq mshr miss latency ((Tick/Count))
system.cpu.dcache.WriteReq.hits::cpu.data     39584387                       # number of WriteReq hits (Count)
system.cpu.dcache.WriteReq.hits::total       39584387                       # number of WriteReq hits (Count)
system.cpu.dcache.WriteReq.misses::cpu.data          624                       # number of WriteReq misses (Count)
system.cpu.dcache.WriteReq.misses::total          624                       # number of WriteReq misses (Count)
system.cpu.dcache.WriteReq.missLatency::cpu.data     44125500                       # number of WriteReq miss ticks (Tick)
system.cpu.dcache.WriteReq.missLatency::total     44125500                       # number of WriteReq miss ticks (Tick)
system.cpu.dcache.WriteReq.accesses::cpu.data     39585011                       # number of WriteReq accesses(hits+misses) (Count)
system.cpu.dcache.WriteReq.accesses::total     39585011                       # number of WriteReq accesses(hits+misses) (Count)
system.cpu.dcache.WriteReq.missRate::cpu.data     0.000016                       # miss rate for WriteReq accesses (Ratio)
system.cpu.dcache.WriteReq.missRate::total     0.000016                       # miss rate for WriteReq accesses (Ratio)
system.cpu.dcache.WriteReq.avgMissLatency::cpu.data 70713.942308                       # average WriteReq miss latency ((Tick/Count))
system.cpu.dcache.WriteReq.avgMissLatency::total 70713.942308                       # average WriteReq miss latency ((Tick/Count))
system.cpu.dcache.WriteReq.mshrHits::cpu.data            2                       # number of WriteReq MSHR hits (Count)
system.cpu.dcache.WriteReq.mshrHits::total            2                       # number of WriteReq MSHR hits (Count)
system.cpu.dcache.WriteReq.mshrMisses::cpu.data          622                       # number of WriteReq MSHR misses (Count)
system.cpu.dcache.WriteReq.mshrMisses::total          622                       # number of WriteReq MSHR misses (Count)
system.cpu.dcache.WriteReq.mshrMissLatency::cpu.data     43369000                       # number of WriteReq MSHR miss ticks (Tick)
system.cpu.dcache.WriteReq.mshrMissLatency::total     43369000                       # number of WriteReq MSHR miss ticks (Tick)
system.cpu.dcache.WriteReq.mshrMissRate::cpu.data     0.000016                       # mshr miss rate for WriteReq accesses (Ratio)
system.cpu.dcache.WriteReq.mshrMissRate::total     0.000016                       # mshr miss rate for WriteReq accesses (Ratio)
system.cpu.dcache.WriteReq.avgMshrMissLatency::cpu.data 69725.080386                       # average WriteReq mshr miss latency ((Tick/Count))
system.cpu.dcache.WriteReq.avgMshrMissLatency::total 69725.080386                       # average WriteReq mshr miss latency ((Tick/Count))
system.cpu.dcache.power_state.pwrStateResidencyTicks::UNDEFINED 131938842500                       # Cumulative time (in ticks) in various power states (Tick)
system.cpu.dcache.tags.tagsInUse          1003.530997                       # Average ticks per tags in use ((Tick/Count))
system.cpu.dcache.tags.totalRefs            122162991                       # Total number of references to valid blocks. (Count)
system.cpu.dcache.tags.sampledRefs               2113                       # Sample count of references to valid blocks. (Count)
system.cpu.dcache.tags.avgRefs           57814.950781                       # Average number of references to valid blocks. ((Count/Count))
system.cpu.dcache.tags.warmupTick              170500                       # The tick when the warmup percentage was hit. (Tick)
system.cpu.dcache.tags.occupancies::cpu.data  1003.530997                       # Average occupied blocks per tick, per requestor ((Count/Tick))
system.cpu.dcache.tags.avgOccs::cpu.data     0.980011                       # Average percentage of cache occupancy ((Ratio/Tick))
system.cpu.dcache.tags.avgOccs::total        0.980011                       # Average percentage of cache occupancy ((Ratio/Tick))
system.cpu.dcache.tags.occupanciesTaskId::1024         1004                       # Occupied blocks per task id (Count)
system.cpu.dcache.tags.ageTaskId_1024::0           21                       # Occupied blocks per task id, per block age (Count)
system.cpu.dcache.tags.ageTaskId_1024::4          983                       # Occupied blocks per task id, per block age (Count)
system.cpu.dcache.tags.ratioOccsTaskId::1024     0.980469                       # Ratio of occupied blocks and all blocks, per task id (Ratio)
system.cpu.dcache.tags.tagAccesses          244334083                       # Number of tag accesses (Count)
system.cpu.dcache.tags.dataAccesses         244334083                       # Number of data accesses (Count)
system.cpu.dcache.tags.power_state.pwrStateResidencyTicks::UNDEFINED 131938842500                       # Cumulative time (in ticks) in various power states (Tick)
system.cpu.decode.idleCycles                 50074966                       # Number of cycles decode is idle (Cycle)
system.cpu.decode.blockedCycles             106152391                       # Number of cycles decode is blocked (Cycle)
system.cpu.decode.runCycles                  41321268                       # Number of cycles decode is running (Cycle)
system.cpu.decode.unblockCycles              60215910                       # Number of cycles decode is unblocking (Cycle)
system.cpu.decode.squashCycles                5785715                       # Number of cycles decode is squashing (Cycle)
system.cpu.decode.branchResolved             45333932                       # Number of times decode resolved a branch (Count)
system.cpu.decode.branchMispred                   656                       # Number of times decode detected a branch misprediction (Count)
system.cpu.decode.decodedInsts              749584526                       # Number of instructions handled by decode (Count)
system.cpu.decode.squashedInsts                  2580                       # Number of squashed instructions handled by decode (Count)
system.cpu.fetch.icacheStallCycles           85427312                       # Number of cycles fetch is stalled on an Icache miss (Cycle)
system.cpu.fetch.insts                      399165760                       # Number of instructions fetch has processed (Count)
system.cpu.fetch.branches                    86435842                       # Number of branches that fetch encountered (Count)
system.cpu.fetch.predictedBranches           66060233                       # Number of branches that fetch has predicted taken (Count)
system.cpu.fetch.cycles                     172334860                       # Number of cycles fetch has run and was not squashing or blocked (Cycle)
system.cpu.fetch.squashCycles                11572722                       # Number of cycles fetch has spent squashing (Cycle)
system.cpu.fetch.miscStallCycles                  186                       # Number of cycles fetch has spent waiting on interrupts, or bad addresses, or out of MSHRs (Cycle)
system.cpu.fetch.pendingTrapStallCycles          1509                       # Number of stall cycles due to pending traps (Cycle)
system.cpu.fetch.icacheWaitRetryStallCycles           22                       # Number of stall cycles due to full MSHR (Cycle)
system.cpu.fetch.cacheLines                  75373574                       # Number of cache lines fetched (Count)
system.cpu.fetch.icacheSquashes               1558285                       # Number of outstanding Icache misses that were squashed (Count)
system.cpu.fetch.nisnDist::samples          263550250                       # Number of instructions fetched each cycle (Total) (Count)
system.cpu.fetch.nisnDist::mean              3.328375                       # Number of instructions fetched each cycle (Total) (Count)
system.cpu.fetch.nisnDist::stdev             3.406731                       # Number of instructions fetched each cycle (Total) (Count)
system.cpu.fetch.nisnDist::underflows               0      0.00%      0.00% # Number of instructions fetched each cycle (Total) (Count)
system.cpu.fetch.nisnDist::0                117628325     44.63%     44.63% # Number of instructions fetched each cycle (Total) (Count)
system.cpu.fetch.nisnDist::1                  8120141      3.08%     47.71% # Number of instructions fetched each cycle (Total) (Count)
system.cpu.fetch.nisnDist::2                  8338361      3.16%     50.88% # Number of instructions fetched each cycle (Total) (Count)
system.cpu.fetch.nisnDist::3                  4929572      1.87%     52.75% # Number of instructions fetched each cycle (Total) (Count)
system.cpu.fetch.nisnDist::4                  8387673      3.18%     55.93% # Number of instructions fetched each cycle (Total) (Count)
system.cpu.fetch.nisnDist::5                 27050741     10.26%     66.19% # Number of instructions fetched each cycle (Total) (Count)
system.cpu.fetch.nisnDist::6                 19659508      7.46%     73.65% # Number of instructions fetched each cycle (Total) (Count)
system.cpu.fetch.nisnDist::7                  4640373      1.76%     75.41% # Number of instructions fetched each cycle (Total) (Count)
system.cpu.fetch.nisnDist::8                 64795556     24.59%    100.00% # Number of instructions fetched each cycle (Total) (Count)
system.cpu.fetch.nisnDist::overflows                0      0.00%    100.00% # Number of instructions fetched each cycle (Total) (Count)
system.cpu.fetch.nisnDist::min_value                0                       # Number of instructions fetched each cycle (Total) (Count)
system.cpu.fetch.nisnDist::max_value                8                       # Number of instructions fetched each cycle (Total) (Count)
system.cpu.fetch.nisnDist::total            263550250                       # Number of instructions fetched each cycle (Total) (Count)
system.cpu.fetch.branchRate                  0.327560                       # Number of branch fetches per cycle (Ratio)
system.cpu.fetch.rate                        1.512692                       # Number of inst fetches per cycle ((Count/Cycle))
system.cpu.icache.demandHits::cpu.inst       75054120                       # number of demand (read+write) hits (Count)
system.cpu.icache.demandHits::total          75054120                       # number of demand (read+write) hits (Count)
system.cpu.icache.overallHits::cpu.inst      75054120                       # number of overall hits (Count)
system.cpu.icache.overallHits::total         75054120                       # number of overall hits (Count)
system.cpu.icache.demandMisses::cpu.inst       319454                       # number of demand (read+write) misses (Count)
system.cpu.icache.demandMisses::total          319454                       # number of demand (read+write) misses (Count)
system.cpu.icache.overallMisses::cpu.inst       319454                       # number of overall misses (Count)
system.cpu.icache.overallMisses::total         319454                       # number of overall misses (Count)
system.cpu.icache.demandMissLatency::cpu.inst   4239861000                       # number of demand (read+write) miss ticks (Tick)
system.cpu.icache.demandMissLatency::total   4239861000                       # number of demand (read+write) miss ticks (Tick)
system.cpu.icache.overallMissLatency::cpu.inst   4239861000                       # number of overall miss ticks (Tick)
system.cpu.icache.overallMissLatency::total   4239861000                       # number of overall miss ticks (Tick)
system.cpu.icache.demandAccesses::cpu.inst     75373574                       # number of demand (read+write) accesses (Count)
system.cpu.icache.demandAccesses::total      75373574                       # number of demand (read+write) accesses (Count)
system.cpu.icache.overallAccesses::cpu.inst     75373574                       # number of overall (read+write) accesses (Count)
system.cpu.icache.overallAccesses::total     75373574                       # number of overall (read+write) accesses (Count)
system.cpu.icache.demandMissRate::cpu.inst     0.004238                       # miss rate for demand accesses (Ratio)
system.cpu.icache.demandMissRate::total      0.004238                       # miss rate for demand accesses (Ratio)
system.cpu.icache.overallMissRate::cpu.inst     0.004238                       # miss rate for overall accesses (Ratio)
system.cpu.icache.overallMissRate::total     0.004238                       # miss rate for overall accesses (Ratio)
system.cpu.icache.demandAvgMissLatency::cpu.inst 13272.211336                       # average overall miss latency in ticks ((Tick/Count))
system.cpu.icache.demandAvgMissLatency::total 13272.211336                       # average overall miss latency in ticks ((Tick/Count))
system.cpu.icache.overallAvgMissLatency::cpu.inst 13272.211336                       # average overall miss latency ((Tick/Count))
system.cpu.icache.overallAvgMissLatency::total 13272.211336                       # average overall miss latency ((Tick/Count))
system.cpu.icache.blockedCycles::no_mshrs          343                       # number of cycles access was blocked (Cycle)
system.cpu.icache.blockedCycles::no_targets            0                       # number of cycles access was blocked (Cycle)
system.cpu.icache.blockedCauses::no_mshrs           10                       # number of times access was blocked (Count)
system.cpu.icache.blockedCauses::no_targets            0                       # number of times access was blocked (Count)
system.cpu.icache.avgBlocked::no_mshrs      34.300000                       # average number of cycles each access was blocked ((Cycle/Count))
system.cpu.icache.avgBlocked::no_targets          nan                       # average number of cycles each access was blocked ((Cycle/Count))
system.cpu.icache.demandMshrHits::cpu.inst         2467                       # number of demand (read+write) MSHR hits (Count)
system.cpu.icache.demandMshrHits::total          2467                       # number of demand (read+write) MSHR hits (Count)
system.cpu.icache.overallMshrHits::cpu.inst         2467                       # number of overall MSHR hits (Count)
system.cpu.icache.overallMshrHits::total         2467                       # number of overall MSHR hits (Count)
system.cpu.icache.demandMshrMisses::cpu.inst       316987                       # number of demand (read+write) MSHR misses (Count)
system.cpu.icache.demandMshrMisses::total       316987                       # number of demand (read+write) MSHR misses (Count)
system.cpu.icache.overallMshrMisses::cpu.inst       316987                       # number of overall MSHR misses (Count)
system.cpu.icache.overallMshrMisses::total       316987                       # number of overall MSHR misses (Count)
system.cpu.icache.demandMshrMissLatency::cpu.inst   3888383000                       # number of demand (read+write) MSHR miss ticks (Tick)
system.cpu.icache.demandMshrMissLatency::total   3888383000                       # number of demand (read+write) MSHR miss ticks (Tick)
system.cpu.icache.overallMshrMissLatency::cpu.inst   3888383000                       # number of overall MSHR miss ticks (Tick)
system.cpu.icache.overallMshrMissLatency::total   3888383000                       # number of overall MSHR miss ticks (Tick)
system.cpu.icache.demandMshrMissRate::cpu.inst     0.004206                       # mshr miss ratio for demand accesses (Ratio)
system.cpu.icache.demandMshrMissRate::total     0.004206                       # mshr miss ratio for demand accesses (Ratio)
system.cpu.icache.overallMshrMissRate::cpu.inst     0.004206                       # mshr miss ratio for overall accesses (Ratio)
system.cpu.icache.overallMshrMissRate::total     0.004206                       # mshr miss ratio for overall accesses (Ratio)
system.cpu.icache.demandAvgMshrMissLatency::cpu.inst 12266.695480                       # average overall mshr miss latency ((Tick/Count))
system.cpu.icache.demandAvgMshrMissLatency::total 12266.695480                       # average overall mshr miss latency ((Tick/Count))
system.cpu.icache.overallAvgMshrMissLatency::cpu.inst 12266.695480                       # average overall mshr miss latency ((Tick/Count))
system.cpu.icache.overallAvgMshrMissLatency::total 12266.695480                       # average overall mshr miss latency ((Tick/Count))
system.cpu.icache.replacements                 316858                       # number of replacements (Count)
system.cpu.icache.ReadReq.hits::cpu.inst     75054120                       # number of ReadReq hits (Count)
system.cpu.icache.ReadReq.hits::total        75054120                       # number of ReadReq hits (Count)
system.cpu.icache.ReadReq.misses::cpu.inst       319454                       # number of ReadReq misses (Count)
system.cpu.icache.ReadReq.misses::total        319454                       # number of ReadReq misses (Count)
system.cpu.icache.ReadReq.missLatency::cpu.inst   4239861000                       # number of ReadReq miss ticks (Tick)
system.cpu.icache.ReadReq.missLatency::total   4239861000                       # number of ReadReq miss ticks (Tick)
system.cpu.icache.ReadReq.accesses::cpu.inst     75373574                       # number of ReadReq accesses(hits+misses) (Count)
system.cpu.icache.ReadReq.accesses::total     75373574                       # number of ReadReq accesses(hits+misses) (Count)
system.cpu.icache.ReadReq.missRate::cpu.inst     0.004238                       # miss rate for ReadReq accesses (Ratio)
system.cpu.icache.ReadReq.missRate::total     0.004238                       # miss rate for ReadReq accesses (Ratio)
system.cpu.icache.ReadReq.avgMissLatency::cpu.inst 13272.211336                       # average ReadReq miss latency ((Tick/Count))
system.cpu.icache.ReadReq.avgMissLatency::total 13272.211336                       # average ReadReq miss latency ((Tick/Count))
system.cpu.icache.ReadReq.mshrHits::cpu.inst         2467                       # number of ReadReq MSHR hits (Count)
system.cpu.icache.ReadReq.mshrHits::total         2467                       # number of ReadReq MSHR hits (Count)
system.cpu.icache.ReadReq.mshrMisses::cpu.inst       316987                       # number of ReadReq MSHR misses (Count)
system.cpu.icache.ReadReq.mshrMisses::total       316987                       # number of ReadReq MSHR misses (Count)
system.cpu.icache.ReadReq.mshrMissLatency::cpu.inst   3888383000                       # number of ReadReq MSHR miss ticks (Tick)
system.cpu.icache.ReadReq.mshrMissLatency::total   3888383000                       # number of ReadReq MSHR miss ticks (Tick)
system.cpu.icache.ReadReq.mshrMissRate::cpu.inst     0.004206                       # mshr miss rate for ReadReq accesses (Ratio)
system.cpu.icache.ReadReq.mshrMissRate::total     0.004206                       # mshr miss rate for ReadReq accesses (Ratio)
system.cpu.icache.ReadReq.avgMshrMissLatency::cpu.inst 12266.695480                       # average ReadReq mshr miss latency ((Tick/Count))
system.cpu.icache.ReadReq.avgMshrMissLatency::total 12266.695480                       # average ReadReq mshr miss latency ((Tick/Count))
system.cpu.icache.power_state.pwrStateResidencyTicks::UNDEFINED 131938842500                       # Cumulative time (in ticks) in various power states (Tick)
system.cpu.icache.tags.tagsInUse           127.989485                       # Average ticks per tags in use ((Tick/Count))
system.cpu.icache.tags.totalRefs             75371106                       # Total number of references to valid blocks. (Count)
system.cpu.icache.tags.sampledRefs             316986                       # Sample count of references to valid blocks. (Count)
system.cpu.icache.tags.avgRefs             237.774242                       # Average number of references to valid blocks. ((Count/Count))
system.cpu.icache.tags.warmupTick               82000                       # The tick when the warmup percentage was hit. (Tick)
system.cpu.icache.tags.occupancies::cpu.inst   127.989485                       # Average occupied blocks per tick, per requestor ((Count/Tick))
system.cpu.icache.tags.avgOccs::cpu.inst     0.999918                       # Average percentage of cache occupancy ((Ratio/Tick))
system.cpu.icache.tags.avgOccs::total        0.999918                       # Average percentage of cache occupancy ((Ratio/Tick))
system.cpu.icache.tags.occupanciesTaskId::1024          128                       # Occupied blocks per task id (Count)
system.cpu.icache.tags.ageTaskId_1024::0           98                       # Occupied blocks per task id, per block age (Count)
system.cpu.icache.tags.ageTaskId_1024::4           30                       # Occupied blocks per task id, per block age (Count)
system.cpu.icache.tags.ratioOccsTaskId::1024            1                       # Ratio of occupied blocks and all blocks, per task id (Ratio)
system.cpu.icache.tags.tagAccesses          151064134                       # Number of tag accesses (Count)
system.cpu.icache.tags.dataAccesses         151064134                       # Number of data accesses (Count)
system.cpu.icache.tags.power_state.pwrStateResidencyTicks::UNDEFINED 131938842500                       # Cumulative time (in ticks) in various power states (Tick)
system.cpu.iew.idleCycles                           0                       # Number of cycles IEW is idle (Cycle)
system.cpu.iew.squashCycles                   5785715                       # Number of cycles IEW is squashing (Cycle)
system.cpu.iew.blockCycles                   10768791                       # Number of cycles IEW is blocking (Cycle)
system.cpu.iew.unblockCycles                  2022509                       # Number of cycles IEW is unblocking (Cycle)
system.cpu.iew.dispatchedInsts              684474997                       # Number of instructions dispatched to IQ (Count)
system.cpu.iew.dispSquashedInsts                  841                       # Number of squashed instructions skipped by dispatch (Count)
system.cpu.iew.dispLoadInsts                 89965390                       # Number of dispatched load instructions (Count)
system.cpu.iew.dispStoreInsts                47100355                       # Number of dispatched store instructions (Count)
system.cpu.iew.dispNonSpecInsts                 56853                       # Number of dispatched non-speculative instructions (Count)
system.cpu.iew.iqFullEvents                   1995633                       # Number of times the IQ has become full, causing a stall (Count)
system.cpu.iew.lsqFullEvents                     1884                       # Number of times the LSQ has become full, causing a stall (Count)
system.cpu.iew.memOrderViolationEvents            231                       # Number of memory order violations (Count)
system.cpu.iew.predictedTakenIncorrect        4409339                       # Number of branches that were predicted taken incorrectly (Count)
system.cpu.iew.predictedNotTakenIncorrect      2315793                       # Number of branches that were predicted not taken incorrectly (Count)
system.cpu.iew.branchMispredicts              6725132                       # Number of branch mispredicts detected at execute (Count)
system.cpu.iew.instsToCommit                649164140                       # Cumulative count of insts sent to commit (Count)
system.cpu.iew.writebackCount               647444262                       # Cumulative count of insts written-back (Count)
system.cpu.iew.producerInst                 403969083                       # Number of instructions producing a value (Count)
system.cpu.iew.consumerInst                 516307601                       # Number of instructions consuming a value (Count)
system.cpu.iew.wbRate                        2.453577                       # Insts written-back per cycle ((Count/Cycle))
system.cpu.iew.wbFanout                      0.782419                       # Average fanout of values written-back ((Count/Count))
system.cpu.interrupts.clk_domain.clock           8000                       # Clock period in ticks (Tick)
system.cpu.lsq0.forwLoads                     4349178                       # Number of loads that had data forwarded from stores (Count)
system.cpu.lsq0.squashedLoads                11640965                       # Number of loads squashed (Count)
system.cpu.lsq0.ignoredResponses                 1668                       # Number of memory responses ignored because the instruction is squashed (Count)
system.cpu.lsq0.memOrderViolation                 231                       # Number of memory ordering violations (Count)
system.cpu.lsq0.squashedStores                7458521                       # Number of stores squashed (Count)
system.cpu.lsq0.rescheduledLoads                    3                       # Number of loads that were rescheduled (Count)
system.cpu.lsq0.blockedByCache                     17                       # Number of times an access to memory failed due to the cache being blocked (Count)
system.cpu.lsq0.loadToUse::samples           78324425                       # Distribution of cycle latency between the first time a load is issued and its completion (Unspecified)
system.cpu.lsq0.loadToUse::mean              3.068371                       # Distribution of cycle latency between the first time a load is issued and its completion (Unspecified)
system.cpu.lsq0.loadToUse::stdev             1.154477                       # Distribution of cycle latency between the first time a load is issued and its completion (Unspecified)
system.cpu.lsq0.loadToUse::0-9               78320284     99.99%     99.99% # Distribution of cycle latency between the first time a load is issued and its completion (Unspecified)
system.cpu.lsq0.loadToUse::10-19                   15      0.00%     99.99% # Distribution of cycle latency between the first time a load is issued and its completion (Unspecified)
system.cpu.lsq0.loadToUse::20-29                  204      0.00%     99.99% # Distribution of cycle latency between the first time a load is issued and its completion (Unspecified)
system.cpu.lsq0.loadToUse::30-39                   17      0.00%    100.00% # Distribution of cycle latency between the first time a load is issued and its completion (Unspecified)
system.cpu.lsq0.loadToUse::40-49                    4      0.00%    100.00% # Distribution of cycle latency between the first time a load is issued and its completion (Unspecified)
system.cpu.lsq0.loadToUse::50-59                    3      0.00%    100.00% # Distribution of cycle latency between the first time a load is issued and its completion (Unspecified)
system.cpu.lsq0.loadToUse::60-69                    4      0.00%    100.00% # Distribution of cycle latency between the first time a load is issued and its completion (Unspecified)
system.cpu.lsq0.loadToUse::70-79                    9      0.00%    100.00% # Distribution of cycle latency between the first time a load is issued and its completion (Unspecified)
system.cpu.lsq0.loadToUse::80-89                    5      0.00%    100.00% # Distribution of cycle latency between the first time a load is issued and its completion (Unspecified)
system.cpu.lsq0.loadToUse::90-99                    8      0.00%    100.00% # Distribution of cycle latency between the first time a load is issued and its completion (Unspecified)
system.cpu.lsq0.loadToUse::100-109                 14      0.00%    100.00% # Distribution of cycle latency between the first time a load is issued and its completion (Unspecified)
system.cpu.lsq0.loadToUse::110-119                 27      0.00%    100.00% # Distribution of cycle latency between the first time a load is issued and its completion (Unspecified)
system.cpu.lsq0.loadToUse::120-129                536      0.00%    100.00% # Distribution of cycle latency between the first time a load is issued and its completion (Unspecified)
system.cpu.lsq0.loadToUse::130-139               2273      0.00%    100.00% # Distribution of cycle latency between the first time a load is issued and its completion (Unspecified)
system.cpu.lsq0.loadToUse::140-149                377      0.00%    100.00% # Distribution of cycle latency between the first time a load is issued and its completion (Unspecified)
[...]
system.mem_ctrl.dram.bytesWritten::total          320                       # Number of bytes written to this memory (Byte)
system.mem_ctrl.dram.numReads::cpu.inst          1398                       # Number of read requests responded to by this memory (Count)
system.mem_ctrl.dram.numReads::cpu.data          1886                       # Number of read requests responded to by this memory (Count)
system.mem_ctrl.dram.numReads::total             3284                       # Number of read requests responded to by this memory (Count)
system.mem_ctrl.dram.numWrites::writebacks            5                       # Number of write requests responded to by this memory (Count)
system.mem_ctrl.dram.numWrites::total               5                       # Number of write requests responded to by this memory (Count)
system.mem_ctrl.dram.bwRead::cpu.inst          678132                       # Total read bandwidth from this memory ((Byte/Second))
system.mem_ctrl.dram.bwRead::cpu.data          914848                       # Total read bandwidth from this memory ((Byte/Second))
system.mem_ctrl.dram.bwRead::total            1592980                       # Total read bandwidth from this memory ((Byte/Second))
system.mem_ctrl.dram.bwInstRead::cpu.inst       678132                       # Instruction read bandwidth from this memory ((Byte/Second))
system.mem_ctrl.dram.bwInstRead::total         678132                       # Instruction read bandwidth from this memory ((Byte/Second))
system.mem_ctrl.dram.bwWrite::writebacks         2425                       # Write bandwidth from this memory ((Byte/Second))
system.mem_ctrl.dram.bwWrite::total              2425                       # Write bandwidth from this memory ((Byte/Second))
system.mem_ctrl.dram.bwTotal::writebacks         2425                       # Total bandwidth to/from this memory ((Byte/Second))
system.mem_ctrl.dram.bwTotal::cpu.inst         678132                       # Total bandwidth to/from this memory ((Byte/Second))
system.mem_ctrl.dram.bwTotal::cpu.data         914848                       # Total bandwidth to/from this memory ((Byte/Second))
system.mem_ctrl.dram.bwTotal::total           1595406                       # Total bandwidth to/from this memory ((Byte/Second))
system.mem_ctrl.dram.readBursts                  3284                       # Number of DRAM read bursts (Count)
system.mem_ctrl.dram.writeBursts                    0                       # Number of DRAM write bursts (Count)
system.mem_ctrl.dram.perBankRdBursts::0           179                       # Per bank write bursts (Count)
system.mem_ctrl.dram.perBankRdBursts::1           258                       # Per bank write bursts (Count)
system.mem_ctrl.dram.perBankRdBursts::2           226                       # Per bank write bursts (Count)
system.mem_ctrl.dram.perBankRdBursts::3           202                       # Per bank write bursts (Count)
system.mem_ctrl.dram.perBankRdBursts::4           162                       # Per bank write bursts (Count)
system.mem_ctrl.dram.perBankRdBursts::5           131                       # Per bank write bursts (Count)
system.mem_ctrl.dram.perBankRdBursts::6           176                       # Per bank write bursts (Count)
system.mem_ctrl.dram.perBankRdBursts::7           260                       # Per bank write bursts (Count)
system.mem_ctrl.dram.perBankRdBursts::8           186                       # Per bank write bursts (Count)
system.mem_ctrl.dram.perBankRdBursts::9           233                       # Per bank write bursts (Count)
system.mem_ctrl.dram.perBankRdBursts::10          108                       # Per bank write bursts (Count)
system.mem_ctrl.dram.perBankRdBursts::11          179                       # Per bank write bursts (Count)
system.mem_ctrl.dram.perBankRdBursts::12          184                       # Per bank write bursts (Count)
system.mem_ctrl.dram.perBankRdBursts::13          206                       # Per bank write bursts (Count)
system.mem_ctrl.dram.perBankRdBursts::14          289                       # Per bank write bursts (Count)
system.mem_ctrl.dram.perBankRdBursts::15          305                       # Per bank write bursts (Count)
system.mem_ctrl.dram.perBankWrBursts::0             0                       # Per bank write bursts (Count)
system.mem_ctrl.dram.perBankWrBursts::1             0                       # Per bank write bursts (Count)
system.mem_ctrl.dram.perBankWrBursts::2             0                       # Per bank write bursts (Count)
system.mem_ctrl.dram.perBankWrBursts::3             0                       # Per bank write bursts (Count)
system.mem_ctrl.dram.perBankWrBursts::4             0                       # Per bank write bursts (Count)
system.mem_ctrl.dram.perBankWrBursts::5             0                       # Per bank write bursts (Count)
system.mem_ctrl.dram.perBankWrBursts::6             0                       # Per bank write bursts (Count)
system.mem_ctrl.dram.perBankWrBursts::7             0                       # Per bank write bursts (Count)
system.mem_ctrl.dram.perBankWrBursts::8             0                       # Per bank write bursts (Count)
system.mem_ctrl.dram.perBankWrBursts::9             0                       # Per bank write bursts (Count)
system.mem_ctrl.dram.perBankWrBursts::10            0                       # Per bank write bursts (Count)
system.mem_ctrl.dram.perBankWrBursts::11            0                       # Per bank write bursts (Count)
system.mem_ctrl.dram.perBankWrBursts::12            0                       # Per bank write bursts (Count)
system.mem_ctrl.dram.perBankWrBursts::13            0                       # Per bank write bursts (Count)
system.mem_ctrl.dram.perBankWrBursts::14            0                       # Per bank write bursts (Count)
system.mem_ctrl.dram.perBankWrBursts::15            0                       # Per bank write bursts (Count)
system.mem_ctrl.dram.totQLat                 24052500                       # Total ticks spent queuing (Tick)
system.mem_ctrl.dram.totBusLat               16420000                       # Total ticks spent in databus transfers (Tick)
system.mem_ctrl.dram.totMemAccLat            85627500                       # Total ticks spent from burst creation until serviced by the DRAM (Tick)
system.mem_ctrl.dram.avgQLat                  7324.15                       # Average queueing delay per DRAM burst ((Tick/Count))
system.mem_ctrl.dram.avgBusLat                5000.00                       # Average bus latency per DRAM burst ((Tick/Count))
system.mem_ctrl.dram.avgMemAccLat            26074.15                       # Average memory access latency per DRAM burst ((Tick/Count))
system.mem_ctrl.dram.readRowHits                 2657                       # Number of row buffer hits during reads (Count)
system.mem_ctrl.dram.writeRowHits                   0                       # Number of row buffer hits during writes (Count)
system.mem_ctrl.dram.readRowHitRate             80.91                       # Row buffer hit rate for reads (Ratio)
system.mem_ctrl.dram.writeRowHitRate              nan                       # Row buffer hit rate for writes (Ratio)
system.mem_ctrl.dram.bytesPerActivate::samples          624                       # Bytes accessed per row activation (Byte)
system.mem_ctrl.dram.bytesPerActivate::mean   335.897436                       # Bytes accessed per row activation (Byte)
system.mem_ctrl.dram.bytesPerActivate::gmean   205.594529                       # Bytes accessed per row activation (Byte)
system.mem_ctrl.dram.bytesPerActivate::stdev   333.200583                       # Bytes accessed per row activation (Byte)
system.mem_ctrl.dram.bytesPerActivate::0-127          189     30.29%     30.29% # Bytes accessed per row activation (Byte)
system.mem_ctrl.dram.bytesPerActivate::128-255          160     25.64%     55.93% # Bytes accessed per row activation (Byte)
system.mem_ctrl.dram.bytesPerActivate::256-383           81     12.98%     68.91% # Bytes accessed per row activation (Byte)
system.mem_ctrl.dram.bytesPerActivate::384-511           36      5.77%     74.68% # Bytes accessed per row activation (Byte)
system.mem_ctrl.dram.bytesPerActivate::512-639           28      4.49%     79.17% # Bytes accessed per row activation (Byte)
system.mem_ctrl.dram.bytesPerActivate::640-767           24      3.85%     83.01% # Bytes accessed per row activation (Byte)
system.mem_ctrl.dram.bytesPerActivate::768-895           12      1.92%     84.94% # Bytes accessed per row activation (Byte)
system.mem_ctrl.dram.bytesPerActivate::896-1023           12      1.92%     86.86% # Bytes accessed per row activation (Byte)
system.mem_ctrl.dram.bytesPerActivate::1024-1151           82     13.14%    100.00% # Bytes accessed per row activation (Byte)
system.mem_ctrl.dram.bytesPerActivate::total          624                       # Bytes accessed per row activation (Byte)
system.mem_ctrl.dram.bytesRead                 210176                       # Total bytes read (Byte)
system.mem_ctrl.dram.bytesWritten                   0                       # Total bytes written (Byte)
system.mem_ctrl.dram.avgRdBW                 1.592980                       # Average DRAM read bandwidth in MiBytes/s ((Byte/Second))
system.mem_ctrl.dram.avgWrBW                        0                       # Average DRAM write bandwidth in MiBytes/s ((Byte/Second))
system.mem_ctrl.dram.peakBW                  12800.00                       # Theoretical peak bandwidth in MiByte/s ((Byte/Second))
system.mem_ctrl.dram.busUtil                     0.01                       # Data bus utilization in percentage (Ratio)
system.mem_ctrl.dram.busUtilRead                 0.01                       # Data bus utilization in percentage for reads (Ratio)
system.mem_ctrl.dram.busUtilWrite                0.00                       # Data bus utilization in percentage for writes (Ratio)
system.mem_ctrl.dram.pageHitRate                80.91                       # Row buffer hit rate, read and write combined (Ratio)
system.mem_ctrl.dram.power_state.pwrStateResidencyTicks::UNDEFINED 131938842500                       # Cumulative time (in ticks) in various power states (Tick)
system.mem_ctrl.dram.rank0.actEnergy          2556120                       # Energy for activate commands per rank (pJ) (Joule)
system.mem_ctrl.dram.rank0.preEnergy          1354815                       # Energy for precharge commands per rank (pJ) (Joule)
system.mem_ctrl.dram.rank0.readEnergy        11381160                       # Energy for read commands per rank (pJ) (Joule)
system.mem_ctrl.dram.rank0.writeEnergy              0                       # Energy for write commands per rank (pJ) (Joule)
system.mem_ctrl.dram.rank0.refreshEnergy 10415074800.000002                       # Energy for refresh commands per rank (pJ) (Joule)
system.mem_ctrl.dram.rank0.actBackEnergy   1994357040                       # Energy for active background per rank (pJ) (Joule)
system.mem_ctrl.dram.rank0.preBackEnergy  48985056960                       # Energy for precharge background per rank (pJ) (Joule)
system.mem_ctrl.dram.rank0.actPowerDownEnergy            0                       # Energy for active power-down per rank (pJ) (Joule)
system.mem_ctrl.dram.rank0.prePowerDownEnergy            0                       # Energy for precharge power-down per rank (pJ) (Joule)
system.mem_ctrl.dram.rank0.selfRefreshEnergy            0                       # Energy for self refresh per rank (pJ) (Joule)
system.mem_ctrl.dram.rank0.totalEnergy    61409780895                       # Total energy per rank (pJ) (Joule)
system.mem_ctrl.dram.rank0.averagePower    465.441258                       # Core power per rank (mW) (Watt)
system.mem_ctrl.dram.rank0.totalIdleTime            0                       # Total Idle time Per DRAM Rank (Tick)
system.mem_ctrl.dram.rank0.pwrStateTime::IDLE 127331589000                       # Time in different power states (Tick)
system.mem_ctrl.dram.rank0.pwrStateTime::REF   4405700000                       # Time in different power states (Tick)
system.mem_ctrl.dram.rank0.pwrStateTime::SREF            0                       # Time in different power states (Tick)
system.mem_ctrl.dram.rank0.pwrStateTime::PRE_PDN            0                       # Time in different power states (Tick)
system.mem_ctrl.dram.rank0.pwrStateTime::ACT    201553500                       # Time in different power states (Tick)
system.mem_ctrl.dram.rank0.pwrStateTime::ACT_PDN            0                       # Time in different power states (Tick)
system.mem_ctrl.dram.rank1.actEnergy          1920660                       # Energy for activate commands per rank (pJ) (Joule)
system.mem_ctrl.dram.rank1.preEnergy          1013265                       # Energy for precharge commands per rank (pJ) (Joule)
system.mem_ctrl.dram.rank1.readEnergy        12066600                       # Energy for read commands per rank (pJ) (Joule)
system.mem_ctrl.dram.rank1.writeEnergy              0                       # Energy for write commands per rank (pJ) (Joule)
system.mem_ctrl.dram.rank1.refreshEnergy 10415074800.000002                       # Energy for refresh commands per rank (pJ) (Joule)
system.mem_ctrl.dram.rank1.actBackEnergy   1992144300                       # Energy for active background per rank (pJ) (Joule)
system.mem_ctrl.dram.rank1.preBackEnergy  48986920320                       # Energy for precharge background per rank (pJ) (Joule)
system.mem_ctrl.dram.rank1.actPowerDownEnergy            0                       # Energy for active power-down per rank (pJ) (Joule)
system.mem_ctrl.dram.rank1.prePowerDownEnergy            0                       # Energy for precharge power-down per rank (pJ) (Joule)
system.mem_ctrl.dram.rank1.selfRefreshEnergy            0                       # Energy for self refresh per rank (pJ) (Joule)
system.mem_ctrl.dram.rank1.totalEnergy    61409139945                       # Total energy per rank (pJ) (Joule)
system.mem_ctrl.dram.rank1.averagePower    465.436401                       # Core power per rank (mW) (Watt)
system.mem_ctrl.dram.rank1.totalIdleTime            0                       # Total Idle time Per DRAM Rank (Tick)
system.mem_ctrl.dram.rank1.pwrStateTime::IDLE 127336551250                       # Time in different power states (Tick)
system.mem_ctrl.dram.rank1.pwrStateTime::REF   4405700000                       # Time in different power states (Tick)
system.mem_ctrl.dram.rank1.pwrStateTime::SREF            0                       # Time in different power states (Tick)
system.mem_ctrl.dram.rank1.pwrStateTime::PRE_PDN            0                       # Time in different power states (Tick)
system.mem_ctrl.dram.rank1.pwrStateTime::ACT    196591250                       # Time in different power states (Tick)
system.mem_ctrl.dram.rank1.pwrStateTime::ACT_PDN            0                       # Time in different power states (Tick)
system.mem_ctrl.power_state.pwrStateResidencyTicks::UNDEFINED 131938842500                       # Cumulative time (in ticks) in various power states (Tick)
system.membus.transDist::ReadResp                2686                       # Transaction distribution (Count)
system.membus.transDist::WritebackDirty             5                       # Transaction distribution (Count)
system.membus.transDist::CleanEvict                94                       # Transaction distribution (Count)
system.membus.transDist::ReadExReq                598                       # Transaction distribution (Count)
system.membus.transDist::ReadExResp               598                       # Transaction distribution (Count)
system.membus.transDist::ReadSharedReq           2686                       # Transaction distribution (Count)
system.membus.pktCount_system.l2cache.mem_side_port::system.mem_ctrl.port         6667                       # Packet count per connected requestor and responder (Count)
system.membus.pktCount_system.l2cache.mem_side_port::total         6667                       # Packet count per connected requestor and responder (Count)
system.membus.pktCount::total                    6667                       # Packet count per connected requestor and responder (Count)
system.membus.pktSize_system.l2cache.mem_side_port::system.mem_ctrl.port       210496                       # Cumulative packet size per connected requestor and responder (Byte)
system.membus.pktSize_system.l2cache.mem_side_port::total       210496                       # Cumulative packet size per connected requestor and responder (Byte)
system.membus.pktSize::total                   210496                       # Cumulative packet size per connected requestor and responder (Byte)
system.membus.snoops                                0                       # Total snoops (Count)
system.membus.snoopTraffic                          0                       # Total snoop traffic (Byte)
system.membus.snoopFanout::samples               3284                       # Request fanout histogram (Count)
system.membus.snoopFanout::mean                     0                       # Request fanout histogram (Count)
system.membus.snoopFanout::stdev                    0                       # Request fanout histogram (Count)
system.membus.snoopFanout::underflows               0      0.00%      0.00% # Request fanout histogram (Count)
system.membus.snoopFanout::0                     3284    100.00%    100.00% # Request fanout histogram (Count)
system.membus.snoopFanout::1                        0      0.00%    100.00% # Request fanout histogram (Count)
system.membus.snoopFanout::overflows                0      0.00%    100.00% # Request fanout histogram (Count)
system.membus.snoopFanout::min_value                0                       # Request fanout histogram (Count)
system.membus.snoopFanout::max_value                0                       # Request fanout histogram (Count)
system.membus.snoopFanout::total                 3284                       # Request fanout histogram (Count)
system.membus.power_state.pwrStateResidencyTicks::UNDEFINED 131938842500                       # Cumulative time (in ticks) in various power states (Tick)
system.membus.reqLayer2.occupancy             1701500                       # Layer occupancy (ticks) (Tick)
system.membus.reqLayer2.utilization               0.0                       # Layer utilization (Ratio)
system.membus.respLayer0.occupancy            8927000                       # Layer occupancy (ticks) (Tick)
system.membus.respLayer0.utilization              0.0                       # Layer utilization (Ratio)
system.membus.snoop_filter.totRequests           3383                       # Total number of requests made to the snoop filter. (Count)
system.membus.snoop_filter.hitSingleRequests           99                       # Number of requests hitting in the snoop filter with a single holder of the requested data. (Count)
system.membus.snoop_filter.hitMultiRequests            0                       # Number of requests hitting in the snoop filter with multiple (>1) holders of the requested data. (Count)
system.membus.snoop_filter.totSnoops                0                       # Total number of snoops made to the snoop filter. (Count)
system.membus.snoop_filter.hitSingleSnoops            0                       # Number of snoops hitting in the snoop filter with a single holder of the requested data. (Count)
system.membus.snoop_filter.hitMultiSnoops            0                       # Number of snoops hitting in the snoop filter with multiple (>1) holders of the requested data. (Count)
system.workload.inst.arm                            0                       # number of arm instructions executed (Count)
system.workload.inst.quiesce                        0                       # number of quiesce instructions executed (Count)

---------- End Simulation Statistics   ----------
