
---------- Begin Simulation Statistics ----------
simSeconds                                   0.337656                       # Number of seconds simulated (Second)
simTicks                                 337655903500                       # Number of ticks simulated (Tick)
finalTick                                337655903500                       # Number of ticks from beginning of simulation (restored from checkpoints and never reset) (Tick)
simFreq                                  1000000000000                       # The number of ticks per simulated second ((Tick/Second))
hostSeconds                                  14521.29                       # Real time elapsed on the host (Second)
hostTickRate                                 23252472                       # The number of ticks simulated per host second (ticks/s) ((Tick/Second))
hostMemory                                    1204348                       # Number of bytes of host memory used (Byte)
simInsts                                    685048767                       # Number of instructions simulated (Count)
simOps                                     1324124270                       # Number of ops (including micro ops) simulated (Count)
hostInstRate                                    47175                       # Simulator instruction rate (inst/s) ((Count/Second))
hostOpRate                                      91185                       # Simulator op (including micro ops) rate (op/s) ((Count/Second))
system.clk_domain.clock                           500                       # Clock period in ticks (Tick)
system.clk_domain.voltage_domain.voltage            1                       # Voltage in Volts (Volt)
system.cpu.numCycles                        552802916                       # Number of cpu cycles simulated (Cycle)
system.cpu.numWorkItemsStarted                      0                       # Number of work items this cpu started (Count)
system.cpu.numWorkItemsCompleted                    0                       # Number of work items this cpu completed (Count)
system.cpu.instsAdded                      1443986313                       # Number of instructions added to the IQ (excludes non-spec) (Count)
system.cpu.nonSpecInstsAdded                       19                       # Number of non-speculative instructions added to the IQ (Count)
system.cpu.instsIssued                     1426511294                       # Number of instructions issued (Count)
system.cpu.squashedInstsIssued                   1891                       # Number of squashed instructions issued (Count)
system.cpu.squashedInstsExamined            119862056                       # Number of squashed instructions iterated over during squash; mainly for profiling (Count)
system.cpu.squashedOperandsExamined         120290671                       # Number of squashed operands that are examined and possibly removed from graph (Count)
system.cpu.squashedNonSpecRemoved                   1                       # Number of squashed non-spec instructions that were removed (Count)
system.cpu.numIssuedDist::samples           552297456                       # Number of insts issued each cycle (Count)
system.cpu.numIssuedDist::mean               2.582868                       # Number of insts issued each cycle (Count)
system.cpu.numIssuedDist::stdev              1.797727                       # Number of insts issued each cycle (Count)
system.cpu.numIssuedDist::underflows                0      0.00%      0.00% # Number of insts issued each cycle (Count)
system.cpu.numIssuedDist::0                  97336998     17.62%     17.62% # Number of insts issued each cycle (Count)
system.cpu.numIssuedDist::1                  72981663     13.21%     30.84% # Number of insts issued each cycle (Count)
system.cpu.numIssuedDist::2                  92166466     16.69%     47.53% # Number of insts issued each cycle (Count)
system.cpu.numIssuedDist::3                 113553890     20.56%     68.09% # Number of insts issued each cycle (Count)
system.cpu.numIssuedDist::4                  86051119     15.58%     83.67% # Number of insts issued each cycle (Count)
system.cpu.numIssuedDist::5                  60673769     10.99%     94.65% # Number of insts issued each cycle (Count)
system.cpu.numIssuedDist::6                  25788231      4.67%     99.32% # Number of insts issued each cycle (Count)
system.cpu.numIssuedDist::7                   3730238      0.68%    100.00% # Number of insts issued each cycle (Count)
system.cpu.numIssuedDist::8                     15082      0.00%    100.00% # Number of insts issued each cycle (Count)
system.cpu.numIssuedDist::overflows                 0      0.00%    100.00% # Number of insts issued each cycle (Count)
system.cpu.numIssuedDist::min_value                 0                       # Number of insts issued each cycle (Count)
system.cpu.numIssuedDist::max_value                 8                       # Number of insts issued each cycle (Count)
system.cpu.numIssuedDist::total             552297456                       # Number of insts issued each cycle (Count)
system.cpu.statFuBusy::No_OpClass                   0      0.00%      0.00% # attempts to use FU when none available (Count)
system.cpu.statFuBusy::IntAlu                 1678376     81.42%     81.42% # attempts to use FU when none available (Count)
system.cpu.statFuBusy::IntMult                      0      0.00%     81.42% # attempts to use FU when none available (Count)
system.cpu.statFuBusy::IntDiv                       0      0.00%     81.42% # attempts to use FU when none available (Count)
system.cpu.statFuBusy::FloatAdd                     0      0.00%     81.42% # attempts to use FU when none available (Count)
system.cpu.statFuBusy::FloatCmp                     0      0.00%     81.42% # attempts to use FU when none available (Count)
system.cpu.statFuBusy::FloatCvt                     0      0.00%     81.42% # attempts to use FU when none available (Count)
system.cpu.statFuBusy::FloatMult                    0      0.00%     81.42% # attempts to use FU when none available (Count)
system.cpu.statFuBusy::FloatMultAcc                 0      0.00%     81.42% # attempts to use FU when none available (Count)
system.cpu.statFuBusy::FloatDiv                     0      0.00%     81.42% # attempts to use FU when none available (Count)
system.cpu.statFuBusy::FloatMisc                    0      0.00%     81.42% # attempts to use FU when none available (Count)
system.cpu.statFuBusy::FloatSqrt                    0      0.00%     81.42% # attempts to use FU when none available (Count)
system.cpu.statFuBusy::SimdAdd                      0      0.00%     81.42% # attempts to use FU when none available (Count)
system.cpu.statFuBusy::SimdAddAcc                   0      0.00%     81.42% # attempts to use FU when none available (Count)
system.cpu.statFuBusy::SimdAlu                     10      0.00%     81.42% # attempts to use FU when none available (Count)
system.cpu.statFuBusy::SimdCmp                      0      0.00%     81.42% # attempts to use FU when none available (Count)
system.cpu.statFuBusy::SimdCvt                      9      0.00%     81.42% # attempts to use FU when none available (Count)
system.cpu.statFuBusy::SimdMisc                     3      0.00%     81.42% # attempts to use FU when none available (Count)
system.cpu.statFuBusy::SimdMult                     0      0.00%     81.42% # attempts to use FU when none available (Count)
system.cpu.statFuBusy::SimdMultAcc                  0      0.00%     81.42% # attempts to use FU when none available (Count)
system.cpu.statFuBusy::SimdShift                    0      0.00%     81.42% # attempts to use FU when none available (Count)
system.cpu.statFuBusy::SimdShiftAcc                 0      0.00%     81.42% # attempts to use FU when none available (Count)
system.cpu.statFuBusy::SimdDiv                      0      0.00%     81.42% # attempts to use FU when none available (Count)
system.cpu.statFuBusy::SimdSqrt                     0      0.00%     81.42% # attempts to use FU when none available (Count)
system.cpu.statFuBusy::SimdFloatAdd                 0      0.00%     81.42% # attempts to use FU when none available (Count)
system.cpu.statFuBusy::SimdFloatAlu                 0      0.00%     81.42% # attempts to use FU when none available (Count)
system.cpu.statFuBusy::SimdFloatCmp                 0      0.00%     81.42% # attempts to use FU when none available (Count)
system.cpu.statFuBusy::SimdFloatCvt                 0      0.00%     81.42% # attempts to use FU when none available (Count)
system.cpu.statFuBusy::SimdFloatDiv                 0      0.00%     81.42% # attempts to use FU when none available (Count)
system.cpu.statFuBusy::SimdFloatMisc                0      0.00%     81.42% # attempts to use FU when none available (Count)
system.cpu.statFuBusy::SimdFloatMult                0      0.00%     81.42% # attempts to use FU when none available (Count)
system.cpu.statFuBusy::SimdFloatMultAcc             0      0.00%     81.42% # attempts to use FU when none available (Count)
system.cpu.statFuBusy::SimdFloatSqrt                0      0.00%     81.42% # attempts to use FU when none available (Count)
system.cpu.statFuBusy::SimdReduceAdd                0      0.00%     81.42% # attempts to use FU when none available (Count)
system.cpu.statFuBusy::SimdReduceAlu                0      0.00%     81.42% # attempts to use FU when none available (Count)
system.cpu.statFuBusy::SimdReduceCmp                0      0.00%     81.42% # attempts to use FU when none available (Count)
system.cpu.statFuBusy::SimdFloatReduceAdd            0      0.00%     81.42% # attempts to use FU when none available (Count)
system.cpu.statFuBusy::SimdFloatReduceCmp            0      0.00%     81.42% # attempts to use FU when none available (Count)
system.cpu.statFuBusy::SimdAes                      0      0.00%     81.42% # attempts to use FU when none available (Count)
system.cpu.statFuBusy::SimdAesMix                   0      0.00%     81.42% # attempts to use FU when none available (Count)
system.cpu.statFuBusy::SimdSha1Hash                 0      0.00%     81.42% # attempts to use FU when none available (Count)
system.cpu.statFuBusy::SimdSha1Hash2                0      0.00%     81.42% # attempts to use FU when none available (Count)
system.cpu.statFuBusy::SimdSha256Hash               0      0.00%     81.42% # attempts to use FU when none available (Count)
system.cpu.statFuBusy::SimdSha256Hash2              0      0.00%     81.42% # attempts to use FU when none available (Count)
system.cpu.statFuBusy::SimdShaSigma2                0      0.00%     81.42% # attempts to use FU when none available (Count)
system.cpu.statFuBusy::SimdShaSigma3                0      0.00%     81.42% # attempts to use FU when none available (Count)
system.cpu.statFuBusy::SimdPredAlu                  0      0.00%     81.42% # attempts to use FU when none available (Count)
system.cpu.statFuBusy::MemRead                 170450      8.27%     89.69% # attempts to use FU when none available (Count)
system.cpu.statFuBusy::MemWrite                212559     10.31%    100.00% # attempts to use FU when none available (Count)
system.cpu.statFuBusy::FloatMemRead                 6      0.00%    100.00% # attempts to use FU when none available (Count)
system.cpu.statFuBusy::FloatMemWrite               26      0.00%    100.00% # attempts to use FU when none available (Count)
system.cpu.statFuBusy::IprAccess                    0      0.00%    100.00% # attempts to use FU when none available (Count)
system.cpu.statFuBusy::InstPrefetch                 0      0.00%    100.00% # attempts to use FU when none available (Count)
system.cpu.statIssuedInstType_0::No_OpClass     19866520      1.39%      1.39% # Number of instructions issued per FU type, per thread (Count)
system.cpu.statIssuedInstType_0::IntAlu    1083541727     75.96%     77.35% # Number of instructions issued per FU type, per thread (Count)
system.cpu.statIssuedInstType_0::IntMult        59963      0.00%     77.35% # Number of instructions issued per FU type, per thread (Count)
system.cpu.statIssuedInstType_0::IntDiv        200332      0.01%     77.37% # Number of instructions issued per FU type, per thread (Count)
system.cpu.statIssuedInstType_0::FloatAdd        28994      0.00%     77.37% # Number of instructions issued per FU type, per thread (Count)
system.cpu.statIssuedInstType_0::FloatCmp            0      0.00%     77.37% # Number of instructions issued per FU type, per thread (Count)
system.cpu.statIssuedInstType_0::FloatCvt           32      0.00%     77.37% # Number of instructions issued per FU type, per thread (Count)
system.cpu.statIssuedInstType_0::FloatMult            0      0.00%     77.37% # Number of instructions issued per FU type, per thread (Count)
system.cpu.statIssuedInstType_0::FloatMultAcc            0      0.00%     77.37% # Number of instructions issued per FU type, per thread (Count)
system.cpu.statIssuedInstType_0::FloatDiv            0      0.00%     77.37% # Number of instructions issued per FU type, per thread (Count)
system.cpu.statIssuedInstType_0::FloatMisc            0      0.00%     77.37% # Number of instructions issued per FU type, per thread (Count)
system.cpu.statIssuedInstType_0::FloatSqrt            0      0.00%     77.37% # Number of instructions issued per FU type, per thread (Count)
system.cpu.statIssuedInstType_0::SimdAdd          393      0.00%     77.37% # Number of instructions issued per FU type, per thread (Count)
system.cpu.statIssuedInstType_0::SimdAddAcc            0      0.00%     77.37% # Number of instructions issued per FU type, per thread (Count)
system.cpu.statIssuedInstType_0::SimdAlu       114718      0.01%     77.38% # Number of instructions issued per FU type, per thread (Count)
system.cpu.statIssuedInstType_0::SimdCmp            0      0.00%     77.38% # Number of instructions issued per FU type, per thread (Count)
system.cpu.statIssuedInstType_0::SimdCvt       114535      0.01%     77.39% # Number of instructions issued per FU type, per thread (Count)
system.cpu.statIssuedInstType_0::SimdMisc       256592      0.02%     77.40% # Number of instructions issued per FU type, per thread (Count)
system.cpu.statIssuedInstType_0::SimdMult            0      0.00%     77.40% # Number of instructions issued per FU type, per thread (Count)
system.cpu.statIssuedInstType_0::SimdMultAcc            0      0.00%     77.40% # Number of instructions issued per FU type, per thread (Count)
system.cpu.statIssuedInstType_0::SimdShift          320      0.00%     77.40% # Number of instructions issued per FU type, per thread (Count)
system.cpu.statIssuedInstType_0::SimdShiftAcc            0      0.00%     77.40% # Number of instructions issued per FU type, per thread (Count)
system.cpu.statIssuedInstType_0::SimdDiv            0      0.00%     77.40% # Number of instructions issued per FU type, per thread (Count)
system.cpu.statIssuedInstType_0::SimdSqrt            0      0.00%     77.40% # Number of instructions issued per FU type, per thread (Count)
system.cpu.statIssuedInstType_0::SimdFloatAdd            0      0.00%     77.40% # Number of instructions issued per FU type, per thread (Count)
system.cpu.statIssuedInstType_0::SimdFloatAlu            0      0.00%     77.40% # Number of instructions issued per FU type, per thread (Count)
system.cpu.statIssuedInstType_0::SimdFloatCmp            0      0.00%     77.40% # Number of instructions issued per FU type, per thread (Count)
system.cpu.statIssuedInstType_0::SimdFloatCvt            0      0.00%     77.40% # Number of instructions issued per FU type, per thread (Count)
system.cpu.statIssuedInstType_0::SimdFloatDiv            0      0.00%     77.40% # Number of instructions issued per FU type, per thread (Count)
system.cpu.statIssuedInstType_0::SimdFloatMisc            0      0.00%     77.40% # Number of instructions issued per FU type, per thread (Count)
system.cpu.statIssuedInstType_0::SimdFloatMult            0      0.00%     77.40% # Number of instructions issued per FU type, per thread (Count)
system.cpu.statIssuedInstType_0::SimdFloatMultAcc            0      0.00%     77.40% # Number of instructions issued per FU type, per thread (Count)
system.cpu.statIssuedInstType_0::SimdFloatSqrt            0      0.00%     77.40% # Number of instructions issued per FU type, per thread (Count)
system.cpu.statIssuedInstType_0::SimdReduceAdd            0      0.00%     77.40% # Number of instructions issued per FU type, per thread (Count)
system.cpu.statIssuedInstType_0::SimdReduceAlu            0      0.00%     77.40% # Number of instructions issued per FU type, per thread (Count)
system.cpu.statIssuedInstType_0::SimdReduceCmp            0      0.00%     77.40% # Number of instructions issued per FU type, per thread (Count)
system.cpu.statIssuedInstType_0::SimdFloatReduceAdd            0      0.00%     77.40% # Number of instructions issued per FU type, per thread (Count)
system.cpu.statIssuedInstType_0::SimdFloatReduceCmp            0      0.00%     77.40% # Number of instructions issued per FU type, per thread (Count)
system.cpu.statIssuedInstType_0::SimdAes            0      0.00%     77.40% # Number of instructions issued per FU type, per thread (Count)
system.cpu.statIssuedInstType_0::SimdAesMix            0      0.00%     77.40% # Number of instructions issued per FU type, per thread (Count)
system.cpu.statIssuedInstType_0::SimdSha1Hash            0      0.00%     77.40% # Number of instructions issued per FU type, per thread (Count)
system.cpu.statIssuedInstType_0::SimdSha1Hash2            0      0.00%     77.40% # Number of instructions issued per FU type, per thread (Count)
system.cpu.statIssuedInstType_0::SimdSha256Hash            0      0.00%     77.40% # Number of instructions issued per FU type, per thread (Count)
system.cpu.statIssuedInstType_0::SimdSha256Hash2            0      0.00%     77.40% # Number of instructions issued per FU type, per thread (Count)
system.cpu.statIssuedInstType_0::SimdShaSigma2            0      0.00%     77.40% # Number of instructions issued per FU type, per thread (Count)
system.cpu.statIssuedInstType_0::SimdShaSigma3            0      0.00%     77.40% # Number of instructions issued per FU type, per thread (Count)
system.cpu.statIssuedInstType_0::SimdPredAlu            0      0.00%     77.40% # Number of instructions issued per FU type, per thread (Count)
system.cpu.statIssuedInstType_0::MemRead    222579823     15.60%     93.01% # Number of instructions issued per FU type, per thread (Count)
system.cpu.statIssuedInstType_0::MemWrite     99630848      6.98%     99.99% # Number of instructions issued per FU type, per thread (Count)
system.cpu.statIssuedInstType_0::FloatMemRead        86619      0.01%    100.00% # Number of instructions issued per FU type, per thread (Count)
system.cpu.statIssuedInstType_0::FloatMemWrite        29878      0.00%    100.00% # Number of instructions issued per FU type, per thread (Count)
system.cpu.statIssuedInstType_0::IprAccess            0      0.00%    100.00% # Number of instructions issued per FU type, per thread (Count)
system.cpu.statIssuedInstType_0::InstPrefetch            0      0.00%    100.00% # Number of instructions issued per FU type, per thread (Count)
system.cpu.statIssuedInstType_0::total     1426511294                       # Number of instructions issued per FU type, per thread (Count)
system.cpu.issueRate                         2.580506                       # Inst issue rate ((Count/Cycle))
system.cpu.fuBusy                             2061439                       # FU busy when requested (Count)
system.cpu.fuBusyRate                        0.001445                       # FU busy rate (busy events/executed inst) ((Count/Count))
system.cpu.intInstQueueReads               3405948071                       # Number of integer instruction queue reads (Count)
system.cpu.intInstQueueWrites              1563131552                       # Number of integer instruction queue writes (Count)
system.cpu.intInstQueueWakeupAccesses      1410169697                       # Number of integer instruction queue wakeup accesses (Count)
system.cpu.fpInstQueueReads                   1435303                       # Number of floating instruction queue reads (Count)
system.cpu.fpInstQueueWrites                   720545                       # Number of floating instruction queue writes (Count)
system.cpu.fpInstQueueWakeupAccesses           717035                       # Number of floating instruction queue wakeup accesses (Count)
system.cpu.vecInstQueueReads                        0                       # Number of vector instruction queue reads (Count)
system.cpu.vecInstQueueWrites                       0                       # Number of vector instruction queue writes (Count)
system.cpu.vecInstQueueWakeupAccesses               0                       # Number of vector instruction queue wakeup accesses (Count)
system.cpu.intAluAccesses                  1407988541                       # Number of integer alu accesses (Count)
system.cpu.fpAluAccesses                       717672                       # Number of floating point alu accesses (Count)
system.cpu.vecAluAccesses                           0                       # Number of vector alu accesses (Count)
system.cpu.numInsts                        1414301537                       # Number of executed instructions (Count)
system.cpu.numLoadInsts                     219349107                       # Number of load instructions executed (Count)
system.cpu.numSquashedInsts                  12209757                       # Number of squashed instructions skipped in execute (Count)
system.cpu.numSwp                                   0                       # Number of swp insts executed (Count)
system.cpu.numNop                                   0                       # Number of nop insts executed (Count)
system.cpu.numRefs                          317992012                       # Number of memory reference insts executed (Count)
system.cpu.numBranches                      146929306                       # Number of branches executed (Count)
system.cpu.numStoreInsts                     98642905                       # Number of stores executed (Count)
system.cpu.numRate                           2.558419                       # Inst execution rate ((Count/Cycle))
system.cpu.timesIdled                          102486                       # Number of times that the entire CPU went into an idle state and unscheduled itself (Count)
system.cpu.idleCycles                          505460                       # Total number of cycles that the CPU has spent unscheduled due to idling (Cycle)
system.cpu.quiesceCycles                    122508892                       # Total number of cycles that CPU has spent quiesced or waiting for an interrupt (Cycle)
system.cpu.committedInsts                   685048767                       # Number of Instructions Simulated (Count)
system.cpu.committedOps                    1324124270                       # Number of Ops (including micro ops) Simulated (Count)
system.cpu.cpi                               0.806954                       # CPI: Cycles Per Instruction ((Cycle/Count))
system.cpu.totalCpi                          0.806954                       # CPI: Total CPI of All Threads ((Cycle/Count))
system.cpu.ipc                               1.239228                       # IPC: Instructions Per Cycle ((Count/Cycle))
system.cpu.totalIpc                          1.239228                       # IPC: Total IPC of All Threads ((Count/Cycle))
system.cpu.intRegfileReads                 1629292959                       # Number of integer regfile reads (Count)
system.cpu.intRegfileWrites                1034804620                       # Number of integer regfile writes (Count)
system.cpu.fpRegfileReads                     1259424                       # Number of floating regfile reads (Count)
system.cpu.fpRegfileWrites                     629963                       # Number of floating regfile writes (Count)
system.cpu.ccRegfileReads                   667001938                       # number of cc regfile reads (Count)
system.cpu.ccRegfileWrites                  442135331                       # number of cc regfile writes (Count)
system.cpu.miscRegfileReads                 638656360                       # number of misc regfile reads (Count)
system.cpu.miscRegfileWrites                       18                       # number of misc regfile writes (Count)
system.cpu.MemDepUnit__0.insertedLoads      224211407                       # Number of loads inserted to the mem dependence unit. (Count)
system.cpu.MemDepUnit__0.insertedStores     102001255                       # Number of stores inserted to the mem dependence unit. (Count)
system.cpu.MemDepUnit__0.conflictingLoads     12100455                       # Number of conflicting loads. (Count)
system.cpu.MemDepUnit__0.conflictingStores      8560616                       # Number of conflicting stores. (Count)
system.cpu.MemDepUnit__1.insertedLoads              0                       # Number of loads inserted to the mem dependence unit. (Count)
system.cpu.MemDepUnit__1.insertedStores             0                       # Number of stores inserted to the mem dependence unit. (Count)
system.cpu.MemDepUnit__1.conflictingLoads            0                       # Number of conflicting loads. (Count)
system.cpu.MemDepUnit__1.conflictingStores            0                       # Number of conflicting stores. (Count)
system.cpu.MemDepUnit__2.insertedLoads              0                       # Number of loads inserted to the mem dependence unit. (Count)
system.cpu.MemDepUnit__2.insertedStores             0                       # Number of stores inserted to the mem dependence unit. (Count)
system.cpu.MemDepUnit__2.conflictingLoads            0                       # Number of conflicting loads. (Count)
system.cpu.MemDepUnit__2.conflictingStores            0                       # Number of conflicting stores. (Count)
system.cpu.MemDepUnit__3.insertedLoads              0                       # Number of loads inserted to the mem dependence unit. (Count)
system.cpu.MemDepUnit__3.insertedStores             0                       # Number of stores inserted to the mem dependence unit. (Count)
system.cpu.MemDepUnit__3.conflictingLoads            0                       # Number of conflicting loads. (Count)
system.cpu.MemDepUnit__3.conflictingStores            0                       # Number of conflicting stores. (Count)
system.cpu.branchPred.lookups               166024670                       # Number of BP lookups (Count)
system.cpu.branchPred.condPredicted         130764889                       # Number of conditional branches predicted (Count)
system.cpu.branchPred.condIncorrect           6500829                       # Number of conditional branches incorrect (Count)
system.cpu.branchPred.BTBLookups             63769075                       # Number of BTB lookups (Count)
system.cpu.branchPred.BTBUpdates              2705645                       # Number of BTB updates (Count)
system.cpu.branchPred.BTBHits                63574562                       # Number of BTB hits (Count)
system.cpu.branchPred.BTBHitRatio            0.996950                       # BTB Hit Ratio (Ratio)
system.cpu.branchPred.RASUsed                11983000                       # Number of times the RAS was used to get a target. (Count)
system.cpu.branchPred.RASIncorrect               1618                       # Number of incorrect RAS predictions. (Count)
system.cpu.branchPred.indirectLookups         9662243                       # Number of indirect predictor lookups. (Count)
system.cpu.branchPred.indirectHits            9517770                       # Number of indirect target hits. (Count)
system.cpu.branchPred.indirectMisses           144473                       # Number of indirect misses. (Count)
system.cpu.branchPred.indirectMispredicted        28773                       # Number of mispredicted indirect branches. (Count)
system.cpu.commit.commitSquashedInsts       112235608                       # The number of squashed insts skipped by commit (Count)
system.cpu.commit.commitNonSpecStalls              18                       # The number of times commit has been forced to stall to communicate backwards (Count)
system.cpu.commit.branchMispredicts           6454219                       # The number of times a branch was mispredicted (Count)
system.cpu.commit.numCommittedDist::samples    535396042                       # Number of insts commited each cycle (Count)
system.cpu.commit.numCommittedDist::mean     2.473168                       # Number of insts commited each cycle (Count)
system.cpu.commit.numCommittedDist::stdev     2.441777                       # Number of insts commited each cycle (Count)
system.cpu.commit.numCommittedDist::underflows            0      0.00%      0.00% # Number of insts commited each cycle (Count)
system.cpu.commit.numCommittedDist::0       142452389     26.61%     26.61% # Number of insts commited each cycle (Count)
system.cpu.commit.numCommittedDist::1       102398818     19.13%     45.73% # Number of insts commited each cycle (Count)
system.cpu.commit.numCommittedDist::2        58192132     10.87%     56.60% # Number of insts commited each cycle (Count)
system.cpu.commit.numCommittedDist::3       103835973     19.39%     76.00% # Number of insts commited each cycle (Count)
system.cpu.commit.numCommittedDist::4        24200783      4.52%     80.52% # Number of insts commited each cycle (Count)
system.cpu.commit.numCommittedDist::5        23896644      4.46%     84.98% # Number of insts commited each cycle (Count)
system.cpu.commit.numCommittedDist::6        26458669      4.94%     89.92% # Number of insts commited each cycle (Count)
system.cpu.commit.numCommittedDist::7        12890169      2.41%     92.33% # Number of insts commited each cycle (Count)
system.cpu.commit.numCommittedDist::8        41070465      7.67%    100.00% # Number of insts commited each cycle (Count)
system.cpu.commit.numCommittedDist::overflows            0      0.00%    100.00% # Number of insts commited each cycle (Count)
system.cpu.commit.numCommittedDist::min_value            0                       # Number of insts commited each cycle (Count)
system.cpu.commit.numCommittedDist::max_value            8                       # Number of insts commited each cycle (Count)
system.cpu.commit.numCommittedDist::total    535396042                       # Number of insts commited each cycle (Count)
system.cpu.commit.instsCommitted            685048767                       # Number of instructions committed (Count)
system.cpu.commit.opsCommitted             1324124270                       # Number of ops (including micro ops) committed (Count)
system.cpu.commit.memRefs                   305030173                       # Number of memory references committed (Count)
system.cpu.commit.loads                     209682612                       # Number of loads committed (Count)
system.cpu.commit.amos                              0                       # Number of atomic instructions committed (Count)
system.cpu.commit.membars                           0                       # Number of memory barriers committed (Count)
system.cpu.commit.branches                  141580954                       # Number of branches committed (Count)
system.cpu.commit.vectorInstructions                0                       # Number of committed Vector instructions. (Count)
system.cpu.commit.floating                     715699                       # Number of committed floating point instructions. (Count)
system.cpu.commit.integer                  1303634564                       # Number of committed integer instructions. (Count)
system.cpu.commit.functionCalls              10328377                       # Number of function calls committed. (Count)
system.cpu.commit.committedInstType_0::No_OpClass     19047485      1.44%      1.44% # Class of committed instruction (Count)
system.cpu.commit.committedInstType_0::IntAlu    999271971     75.47%     76.91% # Class of committed instruction (Count)
system.cpu.commit.committedInstType_0::IntMult        59919      0.00%     76.91% # Class of committed instruction (Count)
system.cpu.commit.committedInstType_0::IntDiv       200198      0.02%     76.92% # Class of committed instruction (Count)
system.cpu.commit.committedInstType_0::FloatAdd        28795      0.00%     76.93% # Class of committed instruction (Count)
system.cpu.commit.committedInstType_0::FloatCmp            0      0.00%     76.93% # Class of committed instruction (Count)
system.cpu.commit.committedInstType_0::FloatCvt           32      0.00%     76.93% # Class of committed instruction (Count)
system.cpu.commit.committedInstType_0::FloatMult            0      0.00%     76.93% # Class of committed instruction (Count)
system.cpu.commit.committedInstType_0::FloatMultAcc            0      0.00%     76.93% # Class of committed instruction (Count)
system.cpu.commit.committedInstType_0::FloatDiv            0      0.00%     76.93% # Class of committed instruction (Count)
system.cpu.commit.committedInstType_0::FloatMisc            0      0.00%     76.93% # Class of committed instruction (Count)
system.cpu.commit.committedInstType_0::FloatSqrt            0      0.00%     76.93% # Class of committed instruction (Count)
system.cpu.commit.committedInstType_0::SimdAdd          350      0.00%     76.93% # Class of committed instruction (Count)
system.cpu.commit.committedInstType_0::SimdAddAcc            0      0.00%     76.93% # Class of committed instruction (Count)
system.cpu.commit.committedInstType_0::SimdAlu       114332      0.01%     76.94% # Class of committed instruction (Count)
system.cpu.commit.committedInstType_0::SimdCmp            0      0.00%     76.94% # Class of committed instruction (Count)
system.cpu.commit.committedInstType_0::SimdCvt       114394      0.01%     76.94% # Class of committed instruction (Count)
system.cpu.commit.committedInstType_0::SimdMisc       256518      0.02%     76.96% # Class of committed instruction (Count)
system.cpu.commit.committedInstType_0::SimdMult            0      0.00%     76.96% # Class of committed instruction (Count)
system.cpu.commit.committedInstType_0::SimdMultAcc            0      0.00%     76.96% # Class of committed instruction (Count)
system.cpu.commit.committedInstType_0::SimdShift          103      0.00%     76.96% # Class of committed instruction (Count)
system.cpu.commit.committedInstType_0::SimdShiftAcc            0      0.00%     76.96% # Class of committed instruction (Count)
system.cpu.commit.committedInstType_0::SimdDiv            0      0.00%     76.96% # Class of committed instruction (Count)
system.cpu.commit.committedInstType_0::SimdSqrt            0      0.00%     76.96% # Class of committed instruction (Count)
system.cpu.commit.committedInstType_0::SimdFloatAdd            0      0.00%     76.96% # Class of committed instruction (Count)
system.cpu.commit.committedInstType_0::SimdFloatAlu            0      0.00%     76.96% # Class of committed instruction (Count)
system.cpu.commit.committedInstType_0::SimdFloatCmp            0      0.00%     76.96% # Class of committed instruction (Count)
system.cpu.commit.committedInstType_0::SimdFloatCvt            0      0.00%     76.96% # Class of committed instruction (Count)
system.cpu.commit.committedInstType_0::SimdFloatDiv            0      0.00%     76.96% # Class of committed instruction (Count)
system.cpu.commit.committedInstType_0::SimdFloatMisc            0      0.00%     76.96% # Class of committed instruction (Count)
system.cpu.commit.committedInstType_0::SimdFloatMult            0      0.00%     76.96% # Class of committed instruction (Count)
system.cpu.commit.committedInstType_0::SimdFloatMultAcc            0      0.00%     76.96% # Class of committed instruction (Count)
system.cpu.commit.committedInstType_0::SimdFloatSqrt            0      0.00%     76.96% # Class of committed instruction (Count)
system.cpu.commit.committedInstType_0::SimdReduceAdd            0      0.00%     76.96% # Class of committed instruction (Count)
system.cpu.commit.committedInstType_0::SimdReduceAlu            0      0.00%     76.96% # Class of committed instruction (Count)
system.cpu.commit.committedInstType_0::SimdReduceCmp            0      0.00%     76.96% # Class of committed instruction (Count)
system.cpu.commit.committedInstType_0::SimdFloatReduceAdd            0      0.00%     76.96% # Class of committed instruction (Count)
system.cpu.commit.committedInstType_0::SimdFloatReduceCmp            0      0.00%     76.96% # Class of committed instruction (Count)
system.cpu.commit.committedInstType_0::SimdAes            0      0.00%     76.96% # Class of committed instruction (Count)
system.cpu.commit.committedInstType_0::SimdAesMix            0      0.00%     76.96% # Class of committed instruction (Count)
system.cpu.commit.committedInstType_0::SimdSha1Hash            0      0.00%     76.96% # Class of committed instruction (Count)
system.cpu.commit.committedInstType_0::SimdSha1Hash2            0      0.00%     76.96% # Class of committed instruction (Count)
system.cpu.commit.committedInstType_0::SimdSha256Hash            0      0.00%     76.96% # Class of committed instruction (Count)
system.cpu.commit.committedInstType_0::SimdSha256Hash2            0      0.00%     76.96% # Class of committed instruction (Count)
system.cpu.commit.committedInstType_0::SimdShaSigma2            0      0.00%     76.96% # Class of committed instruction (Count)
system.cpu.commit.committedInstType_0::SimdShaSigma3            0      0.00%     76.96% # Class of committed instruction (Count)
system.cpu.commit.committedInstType_0::SimdPredAlu            0      0.00%     76.96% # Class of committed instruction (Count)
system.cpu.commit.committedInstType_0::MemRead    209596497     15.83%     92.79% # Class of committed instruction (Count)
system.cpu.commit.committedInstType_0::MemWrite     95318010      7.20%     99.99% # Class of committed instruction (Count)
system.cpu.commit.committedInstType_0::FloatMemRead        86115      0.01%    100.00% # Class of committed instruction (Count)
system.cpu.commit.committedInstType_0::FloatMemWrite        29551      0.00%    100.00% # Class of committed instruction (Count)
system.cpu.commit.committedInstType_0::IprAccess            0      0.00%    100.00% # Class of committed instruction (Count)
system.cpu.commit.committedInstType_0::InstPrefetch            0      0.00%    100.00% # Class of committed instruction (Count)
system.cpu.commit.committedInstType_0::total   1324124270                       # Class of committed instruction (Count)
system.cpu.commit.commitEligibleSamples      41070465                       # number cycles where commit BW limit reached (Cycle)
system.cpu.dcache.demandHits::cpu.data      306754926                       # number of demand (read+write) hits (Count)
system.cpu.dcache.demandHits::total         306754926                       # number of demand (read+write) hits (Count)
system.cpu.dcache.overallHits::cpu.data     306754926                       # number of overall hits (Count)
system.cpu.dcache.overallHits::total        306754926                       # number of overall hits (Count)
system.cpu.dcache.demandMisses::cpu.data         8346                       # number of demand (read+write) misses (Count)
system.cpu.dcache.demandMisses::total            8346                       # number of demand (read+write) misses (Count)
system.cpu.dcache.overallMisses::cpu.data         8346                       # number of overall misses (Count)
system.cpu.dcache.overallMisses::total           8346                       # number of overall misses (Count)
system.cpu.dcache.demandMissLatency::cpu.data    510172500                       # number of demand (read+write) miss ticks (Tick)
system.cpu.dcache.demandMissLatency::total    510172500                       # number of demand (read+write) miss ticks (Tick)
system.cpu.dcache.overallMissLatency::cpu.data    510172500                       # number of overall miss ticks (Tick)
system.cpu.dcache.overallMissLatency::total    510172500                       # number of overall miss ticks (Tick)
system.cpu.dcache.demandAccesses::cpu.data    306763272                       # number of demand (read+write) accesses (Count)
system.cpu.dcache.demandAccesses::total     306763272                       # number of demand (read+write) accesses (Count)
system.cpu.dcache.overallAccesses::cpu.data    306763272                       # number of overall (read+write) accesses (Count)
system.cpu.dcache.overallAccesses::total    306763272                       # number of overall (read+write) accesses (Count)
system.cpu.dcache.demandMissRate::cpu.data     0.000027                       # miss rate for demand accesses (Ratio)
system.cpu.dcache.demandMissRate::total      0.000027                       # miss rate for demand accesses (Ratio)
system.cpu.dcache.overallMissRate::cpu.data     0.000027                       # miss rate for overall accesses (Ratio)
system.cpu.dcache.overallMissRate::total     0.000027                       # miss rate for overall accesses (Ratio)
system.cpu.dcache.demandAvgMissLatency::cpu.data 61127.785766                       # average overall miss latency in ticks ((Tick/Count))
system.cpu.dcache.demandAvgMissLatency::total 61127.785766                       # average overall miss latency in ticks ((Tick/Count))
system.cpu.dcache.overallAvgMissLatency::cpu.data 61127.785766                       # average overall miss latency ((Tick/Count))
system.cpu.dcache.overallAvgMissLatency::total 61127.785766                       # average overall miss latency ((Tick/Count))
system.cpu.dcache.blockedCycles::no_mshrs          339                       # number of cycles access was blocked (Cycle)
system.cpu.dcache.blockedCycles::no_targets            0                       # number of cycles access was blocked (Cycle)
system.cpu.dcache.blockedCauses::no_mshrs           24                       # number of times access was blocked (Count)
system.cpu.dcache.blockedCauses::no_targets            0                       # number of times access was blocked (Count)
system.cpu.dcache.avgBlocked::no_mshrs      14.125000                       # average number of cycles each access was blocked ((Cycle/Count))
system.cpu.dcache.avgBlocked::no_targets          nan                       # average number of cycles each access was blocked ((Cycle/Count))
system.cpu.dcache.writebacks::writebacks          775                       # number of writebacks (Count)
system.cpu.dcache.writebacks::total               775                       # number of writebacks (Count)
system.cpu.dcache.demandMshrHits::cpu.data         5103                       # number of demand (read+write) MSHR hits (Count)
system.cpu.dcache.demandMshrHits::total          5103                       # number of demand (read+write) MSHR hits (Count)
system.cpu.dcache.overallMshrHits::cpu.data         5103                       # number of overall MSHR hits (Count)
system.cpu.dcache.overallMshrHits::total         5103                       # number of overall MSHR hits (Count)
system.cpu.dcache.demandMshrMisses::cpu.data         3243                       # number of demand (read+write) MSHR misses (Count)
system.cpu.dcache.demandMshrMisses::total         3243                       # number of demand (read+write) MSHR misses (Count)
system.cpu.dcache.overallMshrMisses::cpu.data         3243                       # number of overall MSHR misses (Count)
system.cpu.dcache.overallMshrMisses::total         3243                       # number of overall MSHR misses (Count)
system.cpu.dcache.demandMshrMissLatency::cpu.data    196959500                       # number of demand (read+write) MSHR miss ticks (Tick)
system.cpu.dcache.demandMshrMissLatency::total    196959500                       # number of demand (read+write) MSHR miss ticks (Tick)
system.cpu.dcache.overallMshrMissLatency::cpu.data    196959500                       # number of overall MSHR miss ticks (Tick)
system.cpu.dcache.overallMshrMissLatency::total    196959500                       # number of overall MSHR miss ticks (Tick)
system.cpu.dcache.demandMshrMissRate::cpu.data     0.000011                       # mshr miss ratio for demand accesses (Ratio)
system.cpu.dcache.demandMshrMissRate::total     0.000011                       # mshr miss ratio for demand accesses (Ratio)
system.cpu.dcache.overallMshrMissRate::cpu.data     0.000011                       # mshr miss ratio for overall accesses (Ratio)
system.cpu.dcache.overallMshrMissRate::total     0.000011                       # mshr miss ratio for overall accesses (Ratio)
system.cpu.dcache.demandAvgMshrMissLatency::cpu.data 60733.734197                       # average overall mshr miss latency ((Tick/Count))
system.cpu.dcache.demandAvgMshrMissLatency::total 60733.734197                       # average overall mshr miss latency ((Tick/Count))
system.cpu.dcache.overallAvgMshrMissLatency::cpu.data 60733.734197                       # average overall mshr miss latency ((Tick/Count))
system.cpu.dcache.overallAvgMshrMissLatency::total 60733.734197                       # average overall mshr miss latency ((Tick/Count))
system.cpu.dcache.replacements                   2731                       # number of replacements (Count)
system.cpu.dcache.ReadReq.hits::cpu.data    211408043                       # number of ReadReq hits (Count)
system.cpu.dcache.ReadReq.hits::total       211408043                       # number of ReadReq hits (Count)
system.cpu.dcache.ReadReq.misses::cpu.data         7668                       # number of ReadReq misses (Count)
system.cpu.dcache.ReadReq.misses::total          7668                       # number of ReadReq misses (Count)
system.cpu.dcache.ReadReq.missLatency::cpu.data    465311500                       # number of ReadReq miss ticks (Tick)
system.cpu.dcache.ReadReq.missLatency::total    465311500                       # number of ReadReq miss ticks (Tick)
system.cpu.dcache.ReadReq.accesses::cpu.data    211415711                       # number of ReadReq accesses(hits+misses) (Count)
system.cpu.dcache.ReadReq.accesses::total    211415711                       # number of ReadReq accesses(hits+misses) (Count)
system.cpu.dcache.ReadReq.missRate::cpu.data     0.000036                       # miss rate for ReadReq accesses (Ratio)
system.cpu.dcache.ReadReq.missRate::total     0.000036                       # miss rate for ReadReq accesses (Ratio)
system.cpu.dcache.ReadReq.avgMissLatency::cpu.data 60682.250913                       # average ReadReq miss latency ((Tick/Count))
system.cpu.dcache.ReadReq.avgMissLatency::total 60682.250913                       # average ReadReq miss latency ((Tick/Count))
system.cpu.dcache.ReadReq.mshrHits::cpu.data         5097                       # number of ReadReq MSHR hits (Count)
system.cpu.dcache.ReadReq.mshrHits::total         5097                       # number of ReadReq MSHR hits (Count)
system.cpu.dcache.ReadReq.mshrMisses::cpu.data         2571                       # number of ReadReq MSHR misses (Count)
system.cpu.dcache.ReadReq.mshrMisses::total         2571                       # number of ReadReq MSHR misses (Count)
system.cpu.dcache.ReadReq.mshrMissLatency::cpu.data    153069000                       # number of ReadReq MSHR miss ticks (Tick)
system.cpu.dcache.ReadReq.mshrMissLatency::total    153069000                       # number of ReadReq MSHR miss ticks (Tick)
system.cpu.dcache.ReadReq.mshrMissRate::cpu.data     0.000012                       # mshr miss rate for ReadReq accesses (Ratio)
system.cpu.dcache.ReadReq.mshrMissRate::total     0.000012                       # mshr miss rate for ReadReq accesses (Ratio)
system.cpu.dcache.ReadReq.avgMshrMissLatency::cpu.data 59536.756126                       # average ReadReq mshr miss latency ((Tick/Count))
system.cpu.dcache.ReadReq.avgMshrMissLatency::total 59536.756126                       # average ReadReq mshr miss latency ((Tick/Count))
system.cpu.dcache.WriteReq.hits::cpu.data     95346883                       # number of WriteReq hits (Count)
system.cpu.dcache.WriteReq.hits::total       95346883                       # number of WriteReq hits (Count)
system.cpu.dcache.WriteReq.misses::cpu.data          678                       # number of WriteReq misses (Count)
system.cpu.dcache.WriteReq.misses::total          678                       # number of WriteReq misses (Count)
system.cpu.dcache.WriteReq.missLatency::cpu.data     44861000                       # number of WriteReq miss ticks (Tick)
system.cpu.dcache.WriteReq.missLatency::total     44861000                       # number of WriteReq miss ticks (Tick)
system.cpu.dcache.WriteReq.accesses::cpu.data     95347561                       # number of WriteReq accesses(hits+misses) (Count)
system.cpu.dcache.WriteReq.accesses::total     95347561                       # number of WriteReq accesses(hits+misses) (Count)
system.cpu.dcache.WriteReq.missRate::cpu.data     0.000007                       # miss rate for WriteReq accesses (Ratio)
system.cpu.dcache.WriteReq.missRate::total     0.000007                       # miss rate for WriteReq accesses (Ratio)
system.cpu.dcache.WriteReq.avgMissLatency::cpu.data 66166.666667                       # average WriteReq miss latency ((Tick/Count))
system.cpu.dcache.WriteReq.avgMissLatency::total 66166.666667                       # average WriteReq miss latency ((Tick/Count))
system.cpu.dcache.WriteReq.mshrHits::cpu.data            6                       # number of WriteReq MSHR hits (Count)
system.cpu.dcache.WriteReq.mshrHits::total            6                       # number of WriteReq MSHR hits (Count)
system.cpu.dcache.WriteReq.mshrMisses::cpu.data          672                       # number of WriteReq MSHR misses (Count)
system.cpu.dcache.WriteReq.mshrMisses::total          672                       # number of WriteReq MSHR misses (Count)
system.cpu.dcache.WriteReq.mshrMissLatency::cpu.data     43890500                       # number of WriteReq MSHR miss ticks (Tick)
system.cpu.dcache.WriteReq.mshrMissLatency::total     43890500                       # number of WriteReq MSHR miss ticks (Tick)
system.cpu.dcache.WriteReq.mshrMissRate::cpu.data     0.000007                       # mshr miss rate for WriteReq accesses (Ratio)
system.cpu.dcache.WriteReq.mshrMissRate::total     0.000007                       # mshr miss rate for WriteReq accesses (Ratio)
system.cpu.dcache.WriteReq.avgMshrMissLatency::cpu.data 65313.244048                       # average WriteReq mshr miss latency ((Tick/Count))
system.cpu.dcache.WriteReq.avgMshrMissLatency::total 65313.244048                       # average WriteReq mshr miss latency ((Tick/Count))
system.cpu.dcache.power_state.pwrStateResidencyTicks::UNDEFINED 337655903500                       # Cumulative time (in ticks) in various power states (Tick)
system.cpu.dcache.tags.tagsInUse           511.950226                       # Average ticks per tags in use ((Tick/Count))
system.cpu.dcache.tags.totalRefs            306758169                       # Total number of references to valid blocks. (Count)
system.cpu.dcache.tags.sampledRefs               3243                       # Sample count of references to valid blocks. (Count)
system.cpu.dcache.tags.avgRefs           94590.863090                       # Average number of references to valid blocks. ((Count/Count))
system.cpu.dcache.tags.warmupTick              168000                       # The tick when the warmup percentage was hit. (Tick)
system.cpu.dcache.tags.occupancies::cpu.data   511.950226                       # Average occupied blocks per tick, per requestor ((Count/Tick))
system.cpu.dcache.tags.avgOccs::cpu.data     0.999903                       # Average percentage of cache occupancy ((Ratio/Tick))
system.cpu.dcache.tags.avgOccs::total        0.999903                       # Average percentage of cache occupancy ((Ratio/Tick))
system.cpu.dcache.tags.occupanciesTaskId::1024          512                       # Occupied blocks per task id (Count)
system.cpu.dcache.tags.ageTaskId_1024::0           45                       # Occupied blocks per task id, per block age (Count)
system.cpu.dcache.tags.ageTaskId_1024::4          467                       # Occupied blocks per task id, per block age (Count)
system.cpu.dcache.tags.ratioOccsTaskId::1024            1                       # Ratio of occupied blocks and all blocks, per task id (Ratio)
system.cpu.dcache.tags.tagAccesses          613529787                       # Number of tag accesses (Count)
system.cpu.dcache.tags.dataAccesses         613529787                       # Number of data accesses (Count)
system.cpu.dcache.tags.power_state.pwrStateResidencyTicks::UNDEFINED 337655903500                       # Cumulative time (in ticks) in various power states (Tick)
system.cpu.decode.idleCycles                106604778                       # Number of cycles decode is idle (Cycle)
system.cpu.decode.blockedCycles             237254487                       # Number of cycles decode is blocked (Cycle)
system.cpu.decode.runCycles                  74981231                       # Number of cycles decode is running (Cycle)
system.cpu.decode.unblockCycles             126800221                       # Number of cycles decode is unblocking (Cycle)
system.cpu.decode.squashCycles                6656739                       # Number of cycles decode is squashing (Cycle)
system.cpu.decode.branchResolved             60024271                       # Number of times decode resolved a branch (Count)
system.cpu.decode.branchMispred                 46879                       # Number of times decode detected a branch misprediction (Count)
system.cpu.decode.decodedInsts             1521608739                       # Number of instructions handled by decode (Count)
system.cpu.decode.squashedInsts                 42425                       # Number of squashed instructions handled by decode (Count)
system.cpu.fetch.icacheStallCycles          134323322                       # Number of cycles fetch is stalled on an Icache miss (Cycle)
system.cpu.fetch.insts                      836983463                       # Number of instructions fetch has processed (Count)
system.cpu.fetch.branches                   166024670                       # Number of branches that fetch encountered (Count)
system.cpu.fetch.predictedBranches           85075332                       # Number of branches that fetch has predicted taken (Count)
system.cpu.fetch.cycles                     411242273                       # Number of cycles fetch has run and was not squashing or blocked (Cycle)
system.cpu.fetch.squashCycles                13407080                       # Number of cycles fetch has spent squashing (Cycle)
system.cpu.fetch.miscStallCycles                 3056                       # Number of cycles fetch has spent waiting on interrupts, or bad addresses, or out of MSHRs (Cycle)
system.cpu.fetch.pendingTrapStallCycles         25265                       # Number of stall cycles due to pending traps (Cycle)
system.cpu.fetch.cacheLines                 126640408                       # Number of cache lines fetched (Count)
system.cpu.fetch.icacheSquashes               2671788                       # Number of outstanding Icache misses that were squashed (Count)
system.cpu.fetch.nisnDist::samples          552297456                       # Number of instructions fetched each cycle (Total) (Count)
system.cpu.fetch.nisnDist::mean              2.909999                       # Number of instructions fetched each cycle (Total) (Count)
system.cpu.fetch.nisnDist::stdev             3.464510                       # Number of instructions fetched each cycle (Total) (Count)
system.cpu.fetch.nisnDist::underflows               0      0.00%      0.00% # Number of instructions fetched each cycle (Total) (Count)
system.cpu.fetch.nisnDist::0                293928864     53.22%     53.22% # Number of instructions fetched each cycle (Total) (Count)
system.cpu.fetch.nisnDist::1                 12941732      2.34%     55.56% # Number of instructions fetched each cycle (Total) (Count)
system.cpu.fetch.nisnDist::2                 17433877      3.16%     58.72% # Number of instructions fetched each cycle (Total) (Count)
system.cpu.fetch.nisnDist::3                 11339274      2.05%     60.77% # Number of instructions fetched each cycle (Total) (Count)
system.cpu.fetch.nisnDist::4                 12904413      2.34%     63.11% # Number of instructions fetched each cycle (Total) (Count)
system.cpu.fetch.nisnDist::5                 26173509      4.74%     67.85% # Number of instructions fetched each cycle (Total) (Count)
system.cpu.fetch.nisnDist::6                 30827440      5.58%     73.43% # Number of instructions fetched each cycle (Total) (Count)
system.cpu.fetch.nisnDist::7                 16078662      2.91%     76.34% # Number of instructions fetched each cycle (Total) (Count)
system.cpu.fetch.nisnDist::8                130669685     23.66%    100.00% # Number of instructions fetched each cycle (Total) (Count)
system.cpu.fetch.nisnDist::overflows                0      0.00%    100.00% # Number of instructions fetched each cycle (Total) (Count)
system.cpu.fetch.nisnDist::min_value                0                       # Number of instructions fetched each cycle (Total) (Count)
system.cpu.fetch.nisnDist::max_value                8                       # Number of instructions fetched each cycle (Total) (Count)
system.cpu.fetch.nisnDist::total            552297456                       # Number of instructions fetched each cycle (Total) (Count)
system.cpu.fetch.branchRate                  0.300332                       # Number of branch fetches per cycle (Ratio)
system.cpu.fetch.rate                        1.514072                       # Number of inst fetches per cycle ((Count/Cycle))
system.cpu.icache.demandHits::cpu.inst      126379622                       # number of demand (read+write) hits (Count)
system.cpu.icache.demandHits::total         126379622                       # number of demand (read+write) hits (Count)
system.cpu.icache.overallHits::cpu.inst     126379622                       # number of overall hits (Count)
system.cpu.icache.overallHits::total        126379622                       # number of overall hits (Count)
system.cpu.icache.demandMisses::cpu.inst       260786                       # number of demand (read+write) misses (Count)
system.cpu.icache.demandMisses::total          260786                       # number of demand (read+write) misses (Count)
system.cpu.icache.overallMisses::cpu.inst       260786                       # number of overall misses (Count)
system.cpu.icache.overallMisses::total         260786                       # number of overall misses (Count)
system.cpu.icache.demandMissLatency::cpu.inst   3308877000                       # number of demand (read+write) miss ticks (Tick)
system.cpu.icache.demandMissLatency::total   3308877000                       # number of demand (read+write) miss ticks (Tick)
system.cpu.icache.overallMissLatency::cpu.inst   3308877000                       # number of overall miss ticks (Tick)
system.cpu.icache.overallMissLatency::total   3308877000                       # number of overall miss ticks (Tick)
system.cpu.icache.demandAccesses::cpu.inst    126640408                       # number of demand (read+write) accesses (Count)
system.cpu.icache.demandAccesses::total     126640408                       # number of demand (read+write) accesses (Count)
system.cpu.icache.overallAccesses::cpu.inst    126640408                       # number of overall (read+write) accesses (Count)
system.cpu.icache.overallAccesses::total    126640408                       # number of overall (read+write) accesses (Count)
system.cpu.icache.demandMissRate::cpu.inst     0.002059                       # miss rate for demand accesses (Ratio)
system.cpu.icache.demandMissRate::total      0.002059                       # miss rate for demand accesses (Ratio)
system.cpu.icache.overallMissRate::cpu.inst     0.002059                       # miss rate for overall accesses (Ratio)
system.cpu.icache.overallMissRate::total     0.002059                       # miss rate for overall accesses (Ratio)
system.cpu.icache.demandAvgMissLatency::cpu.inst 12688.092919                       # average overall miss latency in ticks ((Tick/Count))
system.cpu.icache.demandAvgMissLatency::total 12688.092919                       # average overall miss latency in ticks ((Tick/Count))
system.cpu.icache.overallAvgMissLatency::cpu.inst 12688.092919                       # average overall miss latency ((Tick/Count))
system.cpu.icache.overallAvgMissLatency::total 12688.092919                       # average overall miss latency ((Tick/Count))
system.cpu.icache.blockedCycles::no_mshrs          108                       # number of cycles access was blocked (Cycle)
system.cpu.icache.blockedCycles::no_targets            0                       # number of cycles access was blocked (Cycle)
system.cpu.icache.blockedCauses::no_mshrs            1                       # number of times access was blocked (Count)
system.cpu.icache.blockedCauses::no_targets            0                       # number of times access was blocked (Count)
system.cpu.icache.avgBlocked::no_mshrs            108                       # average number of cycles each access was blocked ((Cycle/Count))
system.cpu.icache.avgBlocked::no_targets          nan                       # average number of cycles each access was blocked ((Cycle/Count))
system.cpu.icache.writebacks::writebacks            1                       # number of writebacks (Count)
system.cpu.icache.writebacks::total                 1                       # number of writebacks (Count)
system.cpu.icache.demandMshrHits::cpu.inst        17915                       # number of demand (read+write) MSHR hits (Count)
system.cpu.icache.demandMshrHits::total         17915                       # number of demand (read+write) MSHR hits (Count)
system.cpu.icache.overallMshrHits::cpu.inst        17915                       # number of overall MSHR hits (Count)
system.cpu.icache.overallMshrHits::total        17915                       # number of overall MSHR hits (Count)
system.cpu.icache.demandMshrMisses::cpu.inst       242871                       # number of demand (read+write) MSHR misses (Count)
system.cpu.icache.demandMshrMisses::total       242871                       # number of demand (read+write) MSHR misses (Count)
system.cpu.icache.overallMshrMisses::cpu.inst       242871                       # number of overall MSHR misses (Count)
system.cpu.icache.overallMshrMisses::total       242871                       # number of overall MSHR misses (Count)
system.cpu.icache.demandMshrMissLatency::cpu.inst   2989875500                       # number of demand (read+write) MSHR miss ticks (Tick)
system.cpu.icache.demandMshrMissLatency::total   2989875500                       # number of demand (read+write) MSHR miss ticks (Tick)
system.cpu.icache.overallMshrMissLatency::cpu.inst   2989875500                       # number of overall MSHR miss ticks (Tick)
system.cpu.icache.overallMshrMissLatency::total   2989875500                       # number of overall MSHR miss ticks (Tick)
system.cpu.icache.demandMshrMissRate::cpu.inst     0.001918                       # mshr miss ratio for demand accesses (Ratio)
system.cpu.icache.demandMshrMissRate::total     0.001918                       # mshr miss ratio for demand accesses (Ratio)
system.cpu.icache.overallMshrMissRate::cpu.inst     0.001918                       # mshr miss ratio for overall accesses (Ratio)
system.cpu.icache.overallMshrMissRate::total     0.001918                       # mshr miss ratio for overall accesses (Ratio)
system.cpu.icache.demandAvgMshrMissLatency::cpu.inst 12310.549633                       # average overall mshr miss latency ((Tick/Count))
system.cpu.icache.demandAvgMshrMissLatency::total 12310.549633                       # average overall mshr miss latency ((Tick/Count))
system.cpu.icache.overallAvgMshrMissLatency::cpu.inst 12310.549633                       # average overall mshr miss latency ((Tick/Count))
system.cpu.icache.overallAvgMshrMissLatency::total 12310.549633                       # average overall mshr miss latency ((Tick/Count))
system.cpu.icache.replacements                 242614                       # number of replacements (Count)
system.cpu.icache.ReadReq.hits::cpu.inst    126379622                       # number of ReadReq hits (Count)
system.cpu.icache.ReadReq.hits::total       126379622                       # number of ReadReq hits (Count)
system.cpu.icache.ReadReq.misses::cpu.inst       260786                       # number of ReadReq misses (Count)
system.cpu.icache.ReadReq.misses::total        260786                       # number of ReadReq misses (Count)
system.cpu.icache.ReadReq.missLatency::cpu.inst   3308877000                       # number of ReadReq miss ticks (Tick)
system.cpu.icache.ReadReq.missLatency::total   3308877000                       # number of ReadReq miss ticks (Tick)
system.cpu.icache.ReadReq.accesses::cpu.inst    126640408                       # number of ReadReq accesses(hits+misses) (Count)
system.cpu.icache.ReadReq.accesses::total    126640408                       # number of ReadReq accesses(hits+misses) (Count)
system.cpu.icache.ReadReq.missRate::cpu.inst     0.002059                       # miss rate for ReadReq accesses (Ratio)
system.cpu.icache.ReadReq.missRate::total     0.002059                       # miss rate for ReadReq accesses (Ratio)
system.cpu.icache.ReadReq.avgMissLatency::cpu.inst 12688.092919                       # average ReadReq miss latency ((Tick/Count))
system.cpu.icache.ReadReq.avgMissLatency::total 12688.092919                       # average ReadReq miss latency ((Tick/Count))
system.cpu.icache.ReadReq.mshrHits::cpu.inst        17915                       # number of ReadReq MSHR hits (Count)
system.cpu.icache.ReadReq.mshrHits::total        17915                       # number of ReadReq MSHR hits (Count)
system.cpu.icache.ReadReq.mshrMisses::cpu.inst       242871                       # number of ReadReq MSHR misses (Count)
system.cpu.icache.ReadReq.mshrMisses::total       242871                       # number of ReadReq MSHR misses (Count)
system.cpu.icache.ReadReq.mshrMissLatency::cpu.inst   2989875500                       # number of ReadReq MSHR miss ticks (Tick)
system.cpu.icache.ReadReq.mshrMissLatency::total   2989875500                       # number of ReadReq MSHR miss ticks (Tick)
system.cpu.icache.ReadReq.mshrMissRate::cpu.inst     0.001918                       # mshr miss rate for ReadReq accesses (Ratio)
system.cpu.icache.ReadReq.mshrMissRate::total     0.001918                       # mshr miss rate for ReadReq accesses (Ratio)
system.cpu.icache.ReadReq.avgMshrMissLatency::cpu.inst 12310.549633                       # average ReadReq mshr miss latency ((Tick/Count))
system.cpu.icache.ReadReq.avgMshrMissLatency::total 12310.549633                       # average ReadReq mshr miss latency ((Tick/Count))
system.cpu.icache.power_state.pwrStateResidencyTicks::UNDEFINED 337655903500                       # Cumulative time (in ticks) in various power states (Tick)
system.cpu.icache.tags.tagsInUse           255.990384                       # Average ticks per tags in use ((Tick/Count))
system.cpu.icache.tags.totalRefs            126622492                       # Total number of references to valid blocks. (Count)
system.cpu.icache.tags.sampledRefs             242870                       # Sample count of references to valid blocks. (Count)
system.cpu.icache.tags.avgRefs             521.359130                       # Average number of references to valid blocks. ((Count/Count))
system.cpu.icache.tags.warmupTick               82000                       # The tick when the warmup percentage was hit. (Tick)
system.cpu.icache.tags.occupancies::cpu.inst   255.990384                       # Average occupied blocks per tick, per requestor ((Count/Tick))
system.cpu.icache.tags.avgOccs::cpu.inst     0.999962                       # Average percentage of cache occupancy ((Ratio/Tick))
system.cpu.icache.tags.avgOccs::total        0.999962                       # Average percentage of cache occupancy ((Ratio/Tick))
system.cpu.icache.tags.occupanciesTaskId::1024          256                       # Occupied blocks per task id (Count)
system.cpu.icache.tags.ageTaskId_1024::0          111                       # Occupied blocks per task id, per block age (Count)
system.cpu.icache.tags.ageTaskId_1024::1            1                       # Occupied blocks per task id, per block age (Count)
system.cpu.icache.tags.ageTaskId_1024::4          144                       # Occupied blocks per task id, per block age (Count)
system.cpu.icache.tags.ratioOccsTaskId::1024            1                       # Ratio of occupied blocks and all blocks, per task id (Ratio)
system.cpu.icache.tags.tagAccesses          253523686                       # Number of tag accesses (Count)
system.cpu.icache.tags.dataAccesses         253523686                       # Number of data accesses (Count)
system.cpu.icache.tags.power_state.pwrStateResidencyTicks::UNDEFINED 337655903500                       # Cumulative time (in ticks) in various power states (Tick)
system.cpu.iew.idleCycles                           0                       # Number of cycles IEW is idle (Cycle)
system.cpu.iew.squashCycles                   6656739                       # Number of cycles IEW is squashing (Cycle)
system.cpu.iew.blockCycles                   10433444                       # Number of cycles IEW is blocking (Cycle)
system.cpu.iew.unblockCycles                  2371588                       # Number of cycles IEW is unblocking (Cycle)
system.cpu.iew.dispatchedInsts             1443986332                       # Number of instructions dispatched to IQ (Count)
system.cpu.iew.dispSquashedInsts               540525                       # Number of squashed instructions skipped by dispatch (Count)
system.cpu.iew.dispLoadInsts                224211407                       # Number of dispatched load instructions (Count)
system.cpu.iew.dispStoreInsts               102001255                       # Number of dispatched store instructions (Count)
system.cpu.iew.dispNonSpecInsts                    19                       # Number of dispatched non-speculative instructions (Count)
system.cpu.iew.iqFullEvents                   2367587                       # Number of times the IQ has become full, causing a stall (Count)
system.cpu.iew.lsqFullEvents                     2377                       # Number of times the LSQ has become full, causing a stall (Count)
system.cpu.iew.memOrderViolationEvents           4090                       # Number of memory order violations (Count)
system.cpu.iew.predictedTakenIncorrect        4769223                       # Number of branches that were predicted taken incorrectly (Count)
system.cpu.iew.predictedNotTakenIncorrect      3094807                       # Number of branches that were predicted not taken incorrectly (Count)
system.cpu.iew.branchMispredicts              7864030                       # Number of branch mispredicts detected at execute (Count)
system.cpu.iew.instsToCommit               1412133108                       # Cumulative count of insts sent to commit (Count)
system.cpu.iew.writebackCount              1410886732                       # Cumulative count of insts written-back (Count)
system.cpu.iew.producerInst                 920482833                       # Number of instructions producing a value (Count)
system.cpu.iew.consumerInst                1292312924                       # Number of instructions consuming a value (Count)
system.cpu.iew.wbRate                        2.552242                       # Insts written-back per cycle ((Count/Cycle))
system.cpu.iew.wbFanout                      0.712275                       # Average fanout of values written-back ((Count/Count))
system.cpu.interrupts.clk_domain.clock           8000                       # Clock period in ticks (Tick)
system.cpu.lsq0.forwLoads                     7947459                       # Number of loads that had data forwarded from stores (Count)
system.cpu.lsq0.squashedLoads                14528795                       # Number of loads squashed (Count)
system.cpu.lsq0.ignoredResponses               107154                       # Number of memory responses ignored because the instruction is squashed (Count)
system.cpu.lsq0.memOrderViolation                4090                       # Number of memory ordering violations (Count)
system.cpu.lsq0.squashedStores                6653694                       # Number of stores squashed (Count)
system.cpu.lsq0.rescheduledLoads                   47                       # Number of loads that were rescheduled (Count)
system.cpu.lsq0.blockedByCache                     12                       # Number of times an access to memory failed due to the cache being blocked (Count)
system.cpu.lsq0.loadToUse::samples          209682612                       # Distribution of cycle latency between the first time a load is issued and its completion (Unspecified)
system.cpu.lsq0.loadToUse::mean              3.115473                       # Distribution of cycle latency between the first time a load is issued and its completion (Unspecified)
system.cpu.lsq0.loadToUse::stdev             0.877698                       # Distribution of cycle latency between the first time a load is issued and its completion (Unspecified)
system.cpu.lsq0.loadToUse::0-9              209676025    100.00%    100.00% # Distribution of cycle latency between the first time a load is issued and its completion (Unspecified)
system.cpu.lsq0.loadToUse::10-19                   71      0.00%    100.00% # Distribution of cycle latency between the first time a load is issued and its completion (Unspecified)
system.cpu.lsq0.loadToUse::20-29                  604      0.00%    100.00% # Distribution of cycle latency between the first time a load is issued and its completion (Unspecified)
system.cpu.lsq0.loadToUse::30-39                   30      0.00%    100.00% # Distribution of cycle latency between the first time a load is issued and its completion (Unspecified)
system.cpu.lsq0.loadToUse::40-49                   11      0.00%    100.00% # Distribution of cycle latency between the first time a load is issued and its completion (Unspecified)
system.cpu.lsq0.loadToUse::50-59                   11      0.00%    100.00% # Distribution of cycle latency between the first time a load is issued and its completion (Unspecified)
system.cpu.lsq0.loadToUse::60-69                   10      0.00%    100.00% # Distribution of cycle latency between the first time a load is issued and its completion (Unspecified)
system.cpu.lsq0.loadToUse::70-79                   34      0.00%    100.00% # Distribution of cycle latency between the first time a load is issued and its completion (Unspecified)
system.cpu.lsq0.loadToUse::80-89                   81      0.00%    100.00% # Distribution of cycle latency between the first time a load is issued and its completion (Unspecified)
system.cpu.lsq0.loadToUse::90-99                   58      0.00%    100.00% # Distribution of cycle latency between the first time a load is issued and its completion (Unspecified)
system.cpu.lsq0.loadToUse::100-109                191      0.00%    100.00% # Distribution of cycle latency between the first time a load is issued and its completion (Unspecified)
system.cpu.lsq0.loadToUse::110-119                261      0.00%    100.00% # Distribution of cycle latency between the first time a load is issued and its completion (Unspecified)
system.cpu.lsq0.loadToUse::120-129                697      0.00%    100.00% # Distribution of cycle latency between the first time a load is issued and its completion (Unspecified)
system.cpu.lsq0.loadToUse::130-139               3583      0.00%    100.00% # Distribution of cycle latency between the first time a load is issued and its completion (Unspecified)
system.cpu.lsq0.loadToUse::140-149                336      0.00%    100.00% # Distribution of cycle latency between the first time a load is issued and its completion (Unspecified)
system.cpu.lsq0.loadToUse::150-159                 94      0.00%    100.00% # Distribution of cycle latency between the first time a load is issued and its completion (Unspecified)
system.cpu.lsq0.loadToUse::160-169                335      0.00%    100.00% # Distribution of cycle latency between the first time a load is issued and its completion (Unspecified)
system.cpu.lsq0.loadToUse::170-179                 28      0.00%    100.00% # Distribution of cycle latency between the first time a load is issued and its completion (Unspecified)
system.cpu.lsq0.loadToUse::180-189                 11      0.00%    100.00% # Distribution of cycle latency between the first time a load is issued and its completion (Unspecified)
system.cpu.lsq0.loadToUse::190-199                 60      0.00%    100.00% # Distribution of cycle latency between the first time a load is issued and its completion (Unspecified)
system.cpu.lsq0.loadToUse::200-209                  7      0.00%    100.00% # Distribution of cycle latency between the first time a load is issued and its completion (Unspecified)
system.cpu.lsq0.loadToUse::240-249                  2      0.00%    100.00% # Distribution of cycle latency between the first time a load is issued and its completion (Unspecified)
system.cpu.lsq0.loadToUse::270-279                  1      0.00%    100.00% # Distribution of cycle latency between the first time a load is issued and its completion (Unspecified)
system.cpu.lsq0.loadToUse::280-289                  1      0.00%    100.00% # Distribution of cycle latency between the first time a load is issued and its completion (Unspecified)
system.cpu.lsq0.loadToUse::overflows               70      0.00%    100.00% # Distribution of cycle latency between the first time a load is issued and its completion (Unspecified)
system.cpu.lsq0.loadToUse::min_value                2                       # Distribution of cycle latency between the first time a load is issued and its completion (Unspecified)
system.cpu.lsq0.loadToUse::max_value              705                       # Distribution of cycle latency between the first time a load is issued and its completion (Unspecified)
system.cpu.lsq0.loadToUse::total            209682612                       # Distribution of cycle latency between the first time a load is issued and its completion (Unspecified)
system.cpu.mmu.dtb.rdAccesses               219363333                       # TLB accesses on read requests (Count)
system.cpu.mmu.dtb.wrAccesses                98642910                       # TLB accesses on write requests (Count)
system.cpu.mmu.dtb.rdMisses                       226                       # TLB misses on read requests (Count)
system.cpu.mmu.dtb.wrMisses                        84                       # TLB misses on write requests (Count)
system.cpu.mmu.dtb.walker.power_state.pwrStateResidencyTicks::UNDEFINED 337655903500                       # Cumulative time (in ticks) in various power states (Tick)
[...]
system.mem_ctrl.requestorReadAvgLat::cpu.inst     25900.53                       # Per-requestor read average memory access latency ((Tick/Count))
system.mem_ctrl.requestorReadAvgLat::cpu.data     24951.05                       # Per-requestor read average memory access latency ((Tick/Count))
system.mem_ctrl.dram.bytesRead::cpu.inst        78976                       # Number of bytes read from this memory (Byte)
system.mem_ctrl.dram.bytesRead::cpu.data       168000                       # Number of bytes read from this memory (Byte)
system.mem_ctrl.dram.bytesRead::total          246976                       # Number of bytes read from this memory (Byte)
system.mem_ctrl.dram.bytesInstRead::cpu.inst        78976                       # Number of instructions bytes read from this memory (Byte)
system.mem_ctrl.dram.bytesInstRead::total        78976                       # Number of instructions bytes read from this memory (Byte)
system.mem_ctrl.dram.numReads::cpu.inst          1234                       # Number of read requests responded to by this memory (Count)
system.mem_ctrl.dram.numReads::cpu.data          2625                       # Number of read requests responded to by this memory (Count)
system.mem_ctrl.dram.numReads::total             3859                       # Number of read requests responded to by this memory (Count)
system.mem_ctrl.dram.bwRead::cpu.inst          233895                       # Total read bandwidth from this memory ((Byte/Second))
system.mem_ctrl.dram.bwRead::cpu.data          497548                       # Total read bandwidth from this memory ((Byte/Second))
system.mem_ctrl.dram.bwRead::total             731443                       # Total read bandwidth from this memory ((Byte/Second))
system.mem_ctrl.dram.bwInstRead::cpu.inst       233895                       # Instruction read bandwidth from this memory ((Byte/Second))
system.mem_ctrl.dram.bwInstRead::total         233895                       # Instruction read bandwidth from this memory ((Byte/Second))
system.mem_ctrl.dram.bwTotal::cpu.inst         233895                       # Total bandwidth to/from this memory ((Byte/Second))
system.mem_ctrl.dram.bwTotal::cpu.data         497548                       # Total bandwidth to/from this memory ((Byte/Second))
system.mem_ctrl.dram.bwTotal::total            731443                       # Total bandwidth to/from this memory ((Byte/Second))
system.mem_ctrl.dram.readBursts                  3859                       # Number of DRAM read bursts (Count)
system.mem_ctrl.dram.writeBursts                    0                       # Number of DRAM write bursts (Count)
system.mem_ctrl.dram.perBankRdBursts::0           354                       # Per bank write bursts (Count)
system.mem_ctrl.dram.perBankRdBursts::1           231                       # Per bank write bursts (Count)
system.mem_ctrl.dram.perBankRdBursts::2           315                       # Per bank write bursts (Count)
system.mem_ctrl.dram.perBankRdBursts::3           240                       # Per bank write bursts (Count)
system.mem_ctrl.dram.perBankRdBursts::4           304                       # Per bank write bursts (Count)
system.mem_ctrl.dram.perBankRdBursts::5           183                       # Per bank write bursts (Count)
system.mem_ctrl.dram.perBankRdBursts::6           199                       # Per bank write bursts (Count)
system.mem_ctrl.dram.perBankRdBursts::7           189                       # Per bank write bursts (Count)
system.mem_ctrl.dram.perBankRdBursts::8           227                       # Per bank write bursts (Count)
system.mem_ctrl.dram.perBankRdBursts::9           307                       # Per bank write bursts (Count)
system.mem_ctrl.dram.perBankRdBursts::10          236                       # Per bank write bursts (Count)
system.mem_ctrl.dram.perBankRdBursts::11          237                       # Per bank write bursts (Count)
system.mem_ctrl.dram.perBankRdBursts::12          201                       # Per bank write bursts (Count)
system.mem_ctrl.dram.perBankRdBursts::13          212                       # Per bank write bursts (Count)
system.mem_ctrl.dram.perBankRdBursts::14          179                       # Per bank write bursts (Count)
system.mem_ctrl.dram.perBankRdBursts::15          245                       # Per bank write bursts (Count)
system.mem_ctrl.dram.perBankWrBursts::0             0                       # Per bank write bursts (Count)
system.mem_ctrl.dram.perBankWrBursts::1             0                       # Per bank write bursts (Count)
system.mem_ctrl.dram.perBankWrBursts::2             0                       # Per bank write bursts (Count)
system.mem_ctrl.dram.perBankWrBursts::3             0                       # Per bank write bursts (Count)
system.mem_ctrl.dram.perBankWrBursts::4             0                       # Per bank write bursts (Count)
system.mem_ctrl.dram.perBankWrBursts::5             0                       # Per bank write bursts (Count)
system.mem_ctrl.dram.perBankWrBursts::6             0                       # Per bank write bursts (Count)
system.mem_ctrl.dram.perBankWrBursts::7             0                       # Per bank write bursts (Count)
system.mem_ctrl.dram.perBankWrBursts::8             0                       # Per bank write bursts (Count)
system.mem_ctrl.dram.perBankWrBursts::9             0                       # Per bank write bursts (Count)
system.mem_ctrl.dram.perBankWrBursts::10            0                       # Per bank write bursts (Count)
system.mem_ctrl.dram.perBankWrBursts::11            0                       # Per bank write bursts (Count)
system.mem_ctrl.dram.perBankWrBursts::12            0                       # Per bank write bursts (Count)
system.mem_ctrl.dram.perBankWrBursts::13            0                       # Per bank write bursts (Count)
system.mem_ctrl.dram.perBankWrBursts::14            0                       # Per bank write bursts (Count)
system.mem_ctrl.dram.perBankWrBursts::15            0                       # Per bank write bursts (Count)
system.mem_ctrl.dram.totQLat                 25101500                       # Total ticks spent queuing (Tick)
system.mem_ctrl.dram.totBusLat               19295000                       # Total ticks spent in databus transfers (Tick)
system.mem_ctrl.dram.totMemAccLat            97457750                       # Total ticks spent from burst creation until serviced by the DRAM (Tick)
system.mem_ctrl.dram.avgQLat                  6504.66                       # Average queueing delay per DRAM burst ((Tick/Count))
system.mem_ctrl.dram.avgBusLat                5000.00                       # Average bus latency per DRAM burst ((Tick/Count))
system.mem_ctrl.dram.avgMemAccLat            25254.66                       # Average memory access latency per DRAM burst ((Tick/Count))
system.mem_ctrl.dram.readRowHits                 3264                       # Number of row buffer hits during reads (Count)
system.mem_ctrl.dram.writeRowHits                   0                       # Number of row buffer hits during writes (Count)
system.mem_ctrl.dram.readRowHitRate             84.58                       # Row buffer hit rate for reads (Ratio)
system.mem_ctrl.dram.writeRowHitRate              nan                       # Row buffer hit rate for writes (Ratio)
system.mem_ctrl.dram.bytesPerActivate::samples          585                       # Bytes accessed per row activation (Byte)
system.mem_ctrl.dram.bytesPerActivate::mean   417.695726                       # Bytes accessed per row activation (Byte)
system.mem_ctrl.dram.bytesPerActivate::gmean   253.108020                       # Bytes accessed per row activation (Byte)
system.mem_ctrl.dram.bytesPerActivate::stdev   375.091546                       # Bytes accessed per row activation (Byte)
system.mem_ctrl.dram.bytesPerActivate::0-127          151     25.81%     25.81% # Bytes accessed per row activation (Byte)
system.mem_ctrl.dram.bytesPerActivate::128-255          124     21.20%     47.01% # Bytes accessed per row activation (Byte)
system.mem_ctrl.dram.bytesPerActivate::256-383           71     12.14%     59.15% # Bytes accessed per row activation (Byte)
system.mem_ctrl.dram.bytesPerActivate::384-511           37      6.32%     65.47% # Bytes accessed per row activation (Byte)
system.mem_ctrl.dram.bytesPerActivate::512-639           30      5.13%     70.60% # Bytes accessed per row activation (Byte)
system.mem_ctrl.dram.bytesPerActivate::640-767           14      2.39%     72.99% # Bytes accessed per row activation (Byte)
system.mem_ctrl.dram.bytesPerActivate::768-895           23      3.93%     76.92% # Bytes accessed per row activation (Byte)
system.mem_ctrl.dram.bytesPerActivate::896-1023           15      2.56%     79.49% # Bytes accessed per row activation (Byte)
system.mem_ctrl.dram.bytesPerActivate::1024-1151          120     20.51%    100.00% # Bytes accessed per row activation (Byte)
system.mem_ctrl.dram.bytesPerActivate::total          585                       # Bytes accessed per row activation (Byte)
system.mem_ctrl.dram.bytesRead                 246976                       # Total bytes read (Byte)
system.mem_ctrl.dram.bytesWritten                   0                       # Total bytes written (Byte)
system.mem_ctrl.dram.avgRdBW                 0.731443                       # Average DRAM read bandwidth in MiBytes/s ((Byte/Second))
system.mem_ctrl.dram.avgWrBW                        0                       # Average DRAM write bandwidth in MiBytes/s ((Byte/Second))
system.mem_ctrl.dram.peakBW                  12800.00                       # Theoretical peak bandwidth in MiByte/s ((Byte/Second))
system.mem_ctrl.dram.busUtil                     0.01                       # Data bus utilization in percentage (Ratio)
system.mem_ctrl.dram.busUtilRead                 0.01                       # Data bus utilization in percentage for reads (Ratio)
system.mem_ctrl.dram.busUtilWrite                0.00                       # Data bus utilization in percentage for writes (Ratio)
system.mem_ctrl.dram.pageHitRate                84.58                       # Row buffer hit rate, read and write combined (Ratio)
system.mem_ctrl.dram.power_state.pwrStateResidencyTicks::UNDEFINED 337655903500                       # Cumulative time (in ticks) in various power states (Tick)
system.mem_ctrl.dram.rank0.actEnergy          1992060                       # Energy for activate commands per rank (pJ) (Joule)
system.mem_ctrl.dram.rank0.preEnergy          1047420                       # Energy for precharge commands per rank (pJ) (Joule)
system.mem_ctrl.dram.rank0.readEnergy        14387100                       # Energy for read commands per rank (pJ) (Joule)
system.mem_ctrl.dram.rank0.writeEnergy              0                       # Energy for write commands per rank (pJ) (Joule)
system.mem_ctrl.dram.rank0.refreshEnergy 26653863600.000004                       # Energy for refresh commands per rank (pJ) (Joule)
system.mem_ctrl.dram.rank0.actBackEnergy   4973616510                       # Energy for active background per rank (pJ) (Joule)
system.mem_ctrl.dram.rank0.preBackEnergy 125471558400                       # Energy for precharge background per rank (pJ) (Joule)
system.mem_ctrl.dram.rank0.actPowerDownEnergy            0                       # Energy for active power-down per rank (pJ) (Joule)
system.mem_ctrl.dram.rank0.prePowerDownEnergy            0                       # Energy for precharge power-down per rank (pJ) (Joule)
system.mem_ctrl.dram.rank0.selfRefreshEnergy            0                       # Energy for self refresh per rank (pJ) (Joule)
system.mem_ctrl.dram.rank0.totalEnergy   157116465090                       # Total energy per rank (pJ) (Joule)
system.mem_ctrl.dram.rank0.averagePower    465.315321                       # Core power per rank (mW) (Watt)
system.mem_ctrl.dram.rank0.totalIdleTime            0                       # Total Idle time Per DRAM Rank (Tick)
system.mem_ctrl.dram.rank0.pwrStateTime::IDLE 326151994250                       # Time in different power states (Tick)
system.mem_ctrl.dram.rank0.pwrStateTime::REF  11274900000                       # Time in different power states (Tick)
system.mem_ctrl.dram.rank0.pwrStateTime::SREF            0                       # Time in different power states (Tick)
system.mem_ctrl.dram.rank0.pwrStateTime::PRE_PDN            0                       # Time in different power states (Tick)
system.mem_ctrl.dram.rank0.pwrStateTime::ACT    229009250                       # Time in different power states (Tick)
system.mem_ctrl.dram.rank0.pwrStateTime::ACT_PDN            0                       # Time in different power states (Tick)
system.mem_ctrl.dram.rank1.actEnergy          2256240                       # Energy for activate commands per rank (pJ) (Joule)
system.mem_ctrl.dram.rank1.preEnergy          1172655                       # Energy for precharge commands per rank (pJ) (Joule)
system.mem_ctrl.dram.rank1.readEnergy        13166160                       # Energy for read commands per rank (pJ) (Joule)
system.mem_ctrl.dram.rank1.writeEnergy              0                       # Energy for write commands per rank (pJ) (Joule)
system.mem_ctrl.dram.rank1.refreshEnergy 26653863600.000004                       # Energy for refresh commands per rank (pJ) (Joule)
system.mem_ctrl.dram.rank1.actBackEnergy   4988918730                       # Energy for active background per rank (pJ) (Joule)
system.mem_ctrl.dram.rank1.preBackEnergy 125458672320                       # Energy for precharge background per rank (pJ) (Joule)
system.mem_ctrl.dram.rank1.actPowerDownEnergy            0                       # Energy for active power-down per rank (pJ) (Joule)
system.mem_ctrl.dram.rank1.prePowerDownEnergy            0                       # Energy for precharge power-down per rank (pJ) (Joule)
system.mem_ctrl.dram.rank1.selfRefreshEnergy            0                       # Energy for self refresh per rank (pJ) (Joule)
system.mem_ctrl.dram.rank1.totalEnergy   157118049705                       # Total energy per rank (pJ) (Joule)
system.mem_ctrl.dram.rank1.averagePower    465.320014                       # Core power per rank (mW) (Watt)
system.mem_ctrl.dram.rank1.totalIdleTime            0                       # Total Idle time Per DRAM Rank (Tick)
system.mem_ctrl.dram.rank1.pwrStateTime::IDLE 326118132000                       # Time in different power states (Tick)
system.mem_ctrl.dram.rank1.pwrStateTime::REF  11274900000                       # Time in different power states (Tick)
system.mem_ctrl.dram.rank1.pwrStateTime::SREF            0                       # Time in different power states (Tick)
system.mem_ctrl.dram.rank1.pwrStateTime::PRE_PDN            0                       # Time in different power states (Tick)
system.mem_ctrl.dram.rank1.pwrStateTime::ACT    262871500                       # Time in different power states (Tick)
system.mem_ctrl.dram.rank1.pwrStateTime::ACT_PDN            0                       # Time in different power states (Tick)
system.mem_ctrl.power_state.pwrStateResidencyTicks::UNDEFINED 337655903500                       # Cumulative time (in ticks) in various power states (Tick)
system.membus.transDist::ReadResp                3274                       # Transaction distribution (Count)
system.membus.transDist::ReadExReq                585                       # Transaction distribution (Count)
system.membus.transDist::ReadExResp               585                       # Transaction distribution (Count)
system.membus.transDist::ReadSharedReq           3274                       # Transaction distribution (Count)
system.membus.pktCount_system.l2cache.mem_side_port::system.mem_ctrl.port         7718                       # Packet count per connected requestor and responder (Count)
system.membus.pktCount_system.l2cache.mem_side_port::total         7718                       # Packet count per connected requestor and responder (Count)
system.membus.pktCount::total                    7718                       # Packet count per connected requestor and responder (Count)
system.membus.pktSize_system.l2cache.mem_side_port::system.mem_ctrl.port       246976                       # Cumulative packet size per connected requestor and responder (Byte)
system.membus.pktSize_system.l2cache.mem_side_port::total       246976                       # Cumulative packet size per connected requestor and responder (Byte)
system.membus.pktSize::total                   246976                       # Cumulative packet size per connected requestor and responder (Byte)
system.membus.snoops                                0                       # Total snoops (Count)
system.membus.snoopTraffic                          0                       # Total snoop traffic (Byte)
system.membus.snoopFanout::samples               3859                       # Request fanout histogram (Count)
system.membus.snoopFanout::mean                     0                       # Request fanout histogram (Count)
system.membus.snoopFanout::stdev                    0                       # Request fanout histogram (Count)
system.membus.snoopFanout::underflows               0      0.00%      0.00% # Request fanout histogram (Count)
system.membus.snoopFanout::0                     3859    100.00%    100.00% # Request fanout histogram (Count)
system.membus.snoopFanout::1                        0      0.00%    100.00% # Request fanout histogram (Count)
system.membus.snoopFanout::overflows                0      0.00%    100.00% # Request fanout histogram (Count)
system.membus.snoopFanout::min_value                0                       # Request fanout histogram (Count)
system.membus.snoopFanout::max_value                0                       # Request fanout histogram (Count)
system.membus.snoopFanout::total                 3859                       # Request fanout histogram (Count)
system.membus.power_state.pwrStateResidencyTicks::UNDEFINED 337655903500                       # Cumulative time (in ticks) in various power states (Tick)
system.membus.reqLayer2.occupancy             1929500                       # Layer occupancy (ticks) (Tick)
system.membus.reqLayer2.utilization               0.0                       # Layer utilization (Ratio)
system.membus.respLayer0.occupancy           10494250                       # Layer occupancy (ticks) (Tick)
system.membus.respLayer0.utilization              0.0                       # Layer utilization (Ratio)
system.membus.snoop_filter.totRequests           3859                       # Total number of requests made to the snoop filter. (Count)
system.membus.snoop_filter.hitSingleRequests            0                       # Number of requests hitting in the snoop filter with a single holder of the requested data. (Count)
system.membus.snoop_filter.hitMultiRequests            0                       # Number of requests hitting in the snoop filter with multiple (>1) holders of the requested data. (Count)
system.membus.snoop_filter.totSnoops                0                       # Total number of snoops made to the snoop filter. (Count)
system.membus.snoop_filter.hitSingleSnoops            0                       # Number of snoops hitting in the snoop filter with a single holder of the requested data. (Count)
system.membus.snoop_filter.hitMultiSnoops            0                       # Number of snoops hitting in the snoop filter with multiple (>1) holders of the requested data. (Count)
system.workload.inst.arm                            0                       # number of arm instructions executed (Count)
system.workload.inst.quiesce                        0                       # number of quiesce instructions executed (Count)

---------- End Simulation Statistics   ----------
