
---------- Begin Simulation Statistics ----------
simSeconds                                   0.112677                       # Number of seconds simulated (Second)
simTicks                                 112677149000                       # Number of ticks simulated (Tick)
finalTick                                112677149000                       # Number of ticks from beginning of simulation (restored from checkpoints and never reset) (Tick)
simFreq                                  1000000000000                       # The number of ticks per simulated second ((Tick/Second))
hostSeconds                                   3576.45                       # Real time elapsed on the host (Second)
hostTickRate                                 31505296                       # The number of ticks simulated per host second (ticks/s) ((Tick/Second))
hostMemory                                    1216816                       # Number of bytes of host memory used (Byte)
simInsts                                    262991506                       # Number of instructions simulated (Count)
simOps                                      573706032                       # Number of ops (including micro ops) simulated (Count)
hostInstRate                                    73534                       # Simulator instruction rate (inst/s) ((Count/Second))
hostOpRate                                     160412                       # Simulator op (including micro ops) rate (op/s) ((Count/Second))
system.clk_domain.clock                           500                       # Clock period in ticks (Tick)
system.clk_domain.voltage_domain.voltage            1                       # Voltage in Volts (Volt)
system.cpu.numCycles                        225354299                       # Number of cpu cycles simulated (Cycle)
system.cpu.numWorkItemsStarted                      0                       # Number of work items this cpu started (Count)
system.cpu.numWorkItemsCompleted                    0                       # Number of work items this cpu completed (Count)
system.cpu.instsAdded                       750741309                       # Number of instructions added to the IQ (excludes non-spec) (Count)
system.cpu.nonSpecInstsAdded                   170940                       # Number of non-speculative instructions added to the IQ (Count)
system.cpu.instsIssued                      709863125                       # Number of instructions issued (Count)
system.cpu.squashedInstsIssued                1256744                       # Number of squashed instructions issued (Count)
system.cpu.squashedInstsExamined            177206211                       # Number of squashed instructions iterated over during squash; mainly for profiling (Count)
system.cpu.squashedOperandsExamined         245598309                       # Number of squashed operands that are examined and possibly removed from graph (Count)
system.cpu.squashedNonSpecRemoved                 450                       # Number of squashed non-spec instructions that were removed (Count)
system.cpu.numIssuedDist::samples           225245050                       # Number of insts issued each cycle (Count)
system.cpu.numIssuedDist::mean               3.151515                       # Number of insts issued each cycle (Count)
system.cpu.numIssuedDist::stdev              2.536660                       # Number of insts issued each cycle (Count)
system.cpu.numIssuedDist::underflows                0      0.00%      0.00% # Number of insts issued each cycle (Count)
system.cpu.numIssuedDist::0                  66175584     29.38%     29.38% # Number of insts issued each cycle (Count)
system.cpu.numIssuedDist::1                  10002968      4.44%     33.82% # Number of insts issued each cycle (Count)
system.cpu.numIssuedDist::2                  15769974      7.00%     40.82% # Number of insts issued each cycle (Count)
system.cpu.numIssuedDist::3                  18969418      8.42%     49.24% # Number of insts issued each cycle (Count)
system.cpu.numIssuedDist::4                  34929470     15.51%     64.75% # Number of insts issued each cycle (Count)
system.cpu.numIssuedDist::5                  35828272     15.91%     80.66% # Number of insts issued each cycle (Count)
system.cpu.numIssuedDist::6                  19861758      8.82%     89.47% # Number of insts issued each cycle (Count)
system.cpu.numIssuedDist::7                  16278681      7.23%     96.70% # Number of insts issued each cycle (Count)
system.cpu.numIssuedDist::8                   7428925      3.30%    100.00% # Number of insts issued each cycle (Count)
system.cpu.numIssuedDist::overflows                 0      0.00%    100.00% # Number of insts issued each cycle (Count)
system.cpu.numIssuedDist::min_value                 0                       # Number of insts issued each cycle (Count)
system.cpu.numIssuedDist::max_value                 8                       # Number of insts issued each cycle (Count)
system.cpu.numIssuedDist::total             225245050                       # Number of insts issued each cycle (Count)
system.cpu.statFuBusy::No_OpClass                   0      0.00%      0.00% # attempts to use FU when none available (Count)
system.cpu.statFuBusy::IntAlu                19500034     98.44%     98.44% # attempts to use FU when none available (Count)
system.cpu.statFuBusy::IntMult                      0      0.00%     98.44% # attempts to use FU when none available (Count)
system.cpu.statFuBusy::IntDiv                       0      0.00%     98.44% # attempts to use FU when none available (Count)
system.cpu.statFuBusy::FloatAdd                     0      0.00%     98.44% # attempts to use FU when none available (Count)
system.cpu.statFuBusy::FloatCmp                     0      0.00%     98.44% # attempts to use FU when none available (Count)
system.cpu.statFuBusy::FloatCvt                     0      0.00%     98.44% # attempts to use FU when none available (Count)
system.cpu.statFuBusy::FloatMult                    0      0.00%     98.44% # attempts to use FU when none available (Count)
system.cpu.statFuBusy::FloatMultAcc                 0      0.00%     98.44% # attempts to use FU when none available (Count)
system.cpu.statFuBusy::FloatDiv                     0      0.00%     98.44% # attempts to use FU when none available (Count)
system.cpu.statFuBusy::FloatMisc                    0      0.00%     98.44% # attempts to use FU when none available (Count)
system.cpu.statFuBusy::FloatSqrt                    0      0.00%     98.44% # attempts to use FU when none available (Count)
system.cpu.statFuBusy::SimdAdd                      0      0.00%     98.44% # attempts to use FU when none available (Count)
system.cpu.statFuBusy::SimdAddAcc                   0      0.00%     98.44% # attempts to use FU when none available (Count)
system.cpu.statFuBusy::SimdAlu                     22      0.00%     98.44% # attempts to use FU when none available (Count)
system.cpu.statFuBusy::SimdCmp                      0      0.00%     98.44% # attempts to use FU when none available (Count)
system.cpu.statFuBusy::SimdCvt                     31      0.00%     98.44% # attempts to use FU when none available (Count)
system.cpu.statFuBusy::SimdMisc                     1      0.00%     98.44% # attempts to use FU when none available (Count)
system.cpu.statFuBusy::SimdMult                     0      0.00%     98.44% # attempts to use FU when none available (Count)
system.cpu.statFuBusy::SimdMultAcc                  0      0.00%     98.44% # attempts to use FU when none available (Count)
system.cpu.statFuBusy::SimdShift                    1      0.00%     98.44% # attempts to use FU when none available (Count)
system.cpu.statFuBusy::SimdShiftAcc                 0      0.00%     98.44% # attempts to use FU when none available (Count)
system.cpu.statFuBusy::SimdDiv                      0      0.00%     98.44% # attempts to use FU when none available (Count)
system.cpu.statFuBusy::SimdSqrt                     0      0.00%     98.44% # attempts to use FU when none available (Count)
system.cpu.statFuBusy::SimdFloatAdd                 0      0.00%     98.44% # attempts to use FU when none available (Count)
system.cpu.statFuBusy::SimdFloatAlu                 0      0.00%     98.44% # attempts to use FU when none available (Count)
system.cpu.statFuBusy::SimdFloatCmp                 0      0.00%     98.44% # attempts to use FU when none available (Count)
system.cpu.statFuBusy::SimdFloatCvt                 0      0.00%     98.44% # attempts to use FU when none available (Count)
system.cpu.statFuBusy::SimdFloatDiv                 0      0.00%     98.44% # attempts to use FU when none available (Count)
system.cpu.statFuBusy::SimdFloatMisc                0      0.00%     98.44% # attempts to use FU when none available (Count)
system.cpu.statFuBusy::SimdFloatMult                0      0.00%     98.44% # attempts to use FU when none available (Count)
system.cpu.statFuBusy::SimdFloatMultAcc             0      0.00%     98.44% # attempts to use FU when none available (Count)
system.cpu.statFuBusy::SimdFloatSqrt                0      0.00%     98.44% # attempts to use FU when none available (Count)
system.cpu.statFuBusy::SimdReduceAdd                0      0.00%     98.44% # attempts to use FU when none available (Count)
system.cpu.statFuBusy::SimdReduceAlu                0      0.00%     98.44% # attempts to use FU when none available (Count)
system.cpu.statFuBusy::SimdReduceCmp                0      0.00%     98.44% # attempts to use FU when none available (Count)
system.cpu.statFuBusy::SimdFloatReduceAdd            0      0.00%     98.44% # attempts to use FU when none available (Count)
system.cpu.statFuBusy::SimdFloatReduceCmp            0      0.00%     98.44% # attempts to use FU when none available (Count)
system.cpu.statFuBusy::SimdAes                      0      0.00%     98.44% # attempts to use FU when none available (Count)
system.cpu.statFuBusy::SimdAesMix                   0      0.00%     98.44% # attempts to use FU when none available (Count)
system.cpu.statFuBusy::SimdSha1Hash                 0      0.00%     98.44% # attempts to use FU when none available (Count)
system.cpu.statFuBusy::SimdSha1Hash2                0      0.00%     98.44% # attempts to use FU when none available (Count)
system.cpu.statFuBusy::SimdSha256Hash               0      0.00%     98.44% # attempts to use FU when none available (Count)
system.cpu.statFuBusy::SimdSha256Hash2              0      0.00%     98.44% # attempts to use FU when none available (Count)
system.cpu.statFuBusy::SimdShaSigma2                0      0.00%     98.44% # attempts to use FU when none available (Count)
system.cpu.statFuBusy::SimdShaSigma3                0      0.00%     98.44% # attempts to use FU when none available (Count)
system.cpu.statFuBusy::SimdPredAlu                  0      0.00%     98.44% # attempts to use FU when none available (Count)
system.cpu.statFuBusy::MemRead                 156653      0.79%     99.23% # attempts to use FU when none available (Count)
system.cpu.statFuBusy::MemWrite                151680      0.77%    100.00% # attempts to use FU when none available (Count)
system.cpu.statFuBusy::FloatMemRead                41      0.00%    100.00% # attempts to use FU when none available (Count)
system.cpu.statFuBusy::FloatMemWrite              175      0.00%    100.00% # attempts to use FU when none available (Count)
system.cpu.statFuBusy::IprAccess                    0      0.00%    100.00% # attempts to use FU when none available (Count)
system.cpu.statFuBusy::InstPrefetch                 0      0.00%    100.00% # attempts to use FU when none available (Count)
system.cpu.statIssuedInstType_0::No_OpClass     13021547      1.83%      1.83% # Number of instructions issued per FU type, per thread (Count)
system.cpu.statIssuedInstType_0::IntAlu     552880050     77.89%     79.72% # Number of instructions issued per FU type, per thread (Count)
system.cpu.statIssuedInstType_0::IntMult        68956      0.01%     79.73% # Number of instructions issued per FU type, per thread (Count)
system.cpu.statIssuedInstType_0::IntDiv          1609      0.00%     79.73% # Number of instructions issued per FU type, per thread (Count)
system.cpu.statIssuedInstType_0::FloatAdd        43577      0.01%     79.74% # Number of instructions issued per FU type, per thread (Count)
system.cpu.statIssuedInstType_0::FloatCmp            0      0.00%     79.74% # Number of instructions issued per FU type, per thread (Count)
system.cpu.statIssuedInstType_0::FloatCvt           32      0.00%     79.74% # Number of instructions issued per FU type, per thread (Count)
system.cpu.statIssuedInstType_0::FloatMult            0      0.00%     79.74% # Number of instructions issued per FU type, per thread (Count)
system.cpu.statIssuedInstType_0::FloatMultAcc            0      0.00%     79.74% # Number of instructions issued per FU type, per thread (Count)
system.cpu.statIssuedInstType_0::FloatDiv            0      0.00%     79.74% # Number of instructions issued per FU type, per thread (Count)
system.cpu.statIssuedInstType_0::FloatMisc            0      0.00%     79.74% # Number of instructions issued per FU type, per thread (Count)
system.cpu.statIssuedInstType_0::FloatSqrt            0      0.00%     79.74% # Number of instructions issued per FU type, per thread (Count)
system.cpu.statIssuedInstType_0::SimdAdd          555      0.00%     79.74% # Number of instructions issued per FU type, per thread (Count)
system.cpu.statIssuedInstType_0::SimdAddAcc            0      0.00%     79.74% # Number of instructions issued per FU type, per thread (Count)
system.cpu.statIssuedInstType_0::SimdAlu       115535      0.02%     79.75% # Number of instructions issued per FU type, per thread (Count)
system.cpu.statIssuedInstType_0::SimdCmp            0      0.00%     79.75% # Number of instructions issued per FU type, per thread (Count)
system.cpu.statIssuedInstType_0::SimdCvt       115133      0.02%     79.77% # Number of instructions issued per FU type, per thread (Count)
system.cpu.statIssuedInstType_0::SimdMisc       271163      0.04%     79.81% # Number of instructions issued per FU type, per thread (Count)
system.cpu.statIssuedInstType_0::SimdMult            0      0.00%     79.81% # Number of instructions issued per FU type, per thread (Count)
system.cpu.statIssuedInstType_0::SimdMultAcc            0      0.00%     79.81% # Number of instructions issued per FU type, per thread (Count)
system.cpu.statIssuedInstType_0::SimdShift          641      0.00%     79.81% # Number of instructions issued per FU type, per thread (Count)
system.cpu.statIssuedInstType_0::SimdShiftAcc            0      0.00%     79.81% # Number of instructions issued per FU type, per thread (Count)
system.cpu.statIssuedInstType_0::SimdDiv            0      0.00%     79.81% # Number of instructions issued per FU type, per thread (Count)
system.cpu.statIssuedInstType_0::SimdSqrt            0      0.00%     79.81% # Number of instructions issued per FU type, per thread (Count)
system.cpu.statIssuedInstType_0::SimdFloatAdd            0      0.00%     79.81% # Number of instructions issued per FU type, per thread (Count)
system.cpu.statIssuedInstType_0::SimdFloatAlu            0      0.00%     79.81% # Number of instructions issued per FU type, per thread (Count)
system.cpu.statIssuedInstType_0::SimdFloatCmp            0      0.00%     79.81% # Number of instructions issued per FU type, per thread (Count)
system.cpu.statIssuedInstType_0::SimdFloatCvt            0      0.00%     79.81% # Number of instructions issued per FU type, per thread (Count)
system.cpu.statIssuedInstType_0::SimdFloatDiv            0      0.00%     79.81% # Number of instructions issued per FU type, per thread (Count)
system.cpu.statIssuedInstType_0::SimdFloatMisc            0      0.00%     79.81% # Number of instructions issued per FU type, per thread (Count)
system.cpu.statIssuedInstType_0::SimdFloatMult            0      0.00%     79.81% # Number of instructions issued per FU type, per thread (Count)
system.cpu.statIssuedInstType_0::SimdFloatMultAcc            0      0.00%     79.81% # Number of instructions issued per FU type, per thread (Count)
system.cpu.statIssuedInstType_0::SimdFloatSqrt            0      0.00%     79.81% # Number of instructions issued per FU type, per thread (Count)
system.cpu.statIssuedInstType_0::SimdReduceAdd            0      0.00%     79.81% # Number of instructions issued per FU type, per thread (Count)
system.cpu.statIssuedInstType_0::SimdReduceAlu            0      0.00%     79.81% # Number of instructions issued per FU type, per thread (Count)
system.cpu.statIssuedInstType_0::SimdReduceCmp            0      0.00%     79.81% # Number of instructions issued per FU type, per thread (Count)
system.cpu.statIssuedInstType_0::SimdFloatReduceAdd            0      0.00%     79.81% # Number of instructions issued per FU type, per thread (Count)
system.cpu.statIssuedInstType_0::SimdFloatReduceCmp            0      0.00%     79.81% # Number of instructions issued per FU type, per thread (Count)
system.cpu.statIssuedInstType_0::SimdAes            0      0.00%     79.81% # Number of instructions issued per FU type, per thread (Count)
system.cpu.statIssuedInstType_0::SimdAesMix            0      0.00%     79.81% # Number of instructions issued per FU type, per thread (Count)
system.cpu.statIssuedInstType_0::SimdSha1Hash            0      0.00%     79.81% # Number of instructions issued per FU type, per thread (Count)
system.cpu.statIssuedInstType_0::SimdSha1Hash2            0      0.00%     79.81% # Number of instructions issued per FU type, per thread (Count)
system.cpu.statIssuedInstType_0::SimdSha256Hash            0      0.00%     79.81% # Number of instructions issued per FU type, per thread (Count)
system.cpu.statIssuedInstType_0::SimdSha256Hash2            0      0.00%     79.81% # Number of instructions issued per FU type, per thread (Count)
system.cpu.statIssuedInstType_0::SimdShaSigma2            0      0.00%     79.81% # Number of instructions issued per FU type, per thread (Count)
system.cpu.statIssuedInstType_0::SimdShaSigma3            0      0.00%     79.81% # Number of instructions issued per FU type, per thread (Count)
system.cpu.statIssuedInstType_0::SimdPredAlu            0      0.00%     79.81% # Number of instructions issued per FU type, per thread (Count)
system.cpu.statIssuedInstType_0::MemRead     94745096     13.35%     93.15% # Number of instructions issued per FU type, per thread (Count)
system.cpu.statIssuedInstType_0::MemWrite     48382606      6.82%     99.97% # Number of instructions issued per FU type, per thread (Count)
system.cpu.statIssuedInstType_0::FloatMemRead       101022      0.01%     99.98% # Number of instructions issued per FU type, per thread (Count)
system.cpu.statIssuedInstType_0::FloatMemWrite       115603      0.02%    100.00% # Number of instructions issued per FU type, per thread (Count)
system.cpu.statIssuedInstType_0::IprAccess            0      0.00%    100.00% # Number of instructions issued per FU type, per thread (Count)
system.cpu.statIssuedInstType_0::InstPrefetch            0      0.00%    100.00% # Number of instructions issued per FU type, per thread (Count)
system.cpu.statIssuedInstType_0::total      709863125                       # Number of instructions issued per FU type, per thread (Count)
system.cpu.issueRate                         3.149987                       # Inst issue rate ((Count/Cycle))
system.cpu.fuBusy                            19808638                       # FU busy when requested (Count)
system.cpu.fuBusyRate                        0.027905                       # FU busy rate (busy events/executed inst) ((Count/Count))
system.cpu.intInstQueueReads               1664309939                       # Number of integer instruction queue reads (Count)
system.cpu.intInstQueueWrites               927255819                       # Number of integer instruction queue writes (Count)
system.cpu.intInstQueueWakeupAccesses       687898459                       # Number of integer instruction queue wakeup accesses (Count)
system.cpu.fpInstQueueReads                   1726743                       # Number of floating instruction queue reads (Count)
system.cpu.fpInstQueueWrites                   863725                       # Number of floating instruction queue writes (Count)
system.cpu.fpInstQueueWakeupAccesses           848934                       # Number of floating instruction queue wakeup accesses (Count)
system.cpu.vecInstQueueReads                        0                       # Number of vector instruction queue reads (Count)
system.cpu.vecInstQueueWrites                       0                       # Number of vector instruction queue writes (Count)
system.cpu.vecInstQueueWakeupAccesses               0                       # Number of vector instruction queue wakeup accesses (Count)
system.cpu.intAluAccesses                   715786822                       # Number of integer alu accesses (Count)
system.cpu.fpAluAccesses                       863394                       # Number of floating point alu accesses (Count)
system.cpu.vecAluAccesses                           0                       # Number of vector alu accesses (Count)
system.cpu.numInsts                         695499869                       # Number of executed instructions (Count)
system.cpu.numLoadInsts                      92347589                       # Number of load instructions executed (Count)
system.cpu.numSquashedInsts                  14363256                       # Number of squashed instructions skipped in execute (Count)
system.cpu.numSwp                                   0                       # Number of swp insts executed (Count)
system.cpu.numNop                                   0                       # Number of nop insts executed (Count)
system.cpu.numRefs                          139659585                       # Number of memory reference insts executed (Count)
system.cpu.numBranches                       62586191                       # Number of branches executed (Count)
system.cpu.numStoreInsts                     47311996                       # Number of stores executed (Count)
system.cpu.numRate                           3.086251                       # Inst execution rate ((Count/Cycle))
system.cpu.timesIdled                           11091                       # Number of times that the entire CPU went into an idle state and unscheduled itself (Count)
system.cpu.idleCycles                          109249                       # Total number of cycles that the CPU has spent unscheduled due to idling (Cycle)
system.cpu.committedInsts                   262991506                       # Number of Instructions Simulated (Count)
system.cpu.committedOps                     573706032                       # Number of Ops (including micro ops) Simulated (Count)
system.cpu.cpi                               0.856888                       # CPI: Cycles Per Instruction ((Cycle/Count))
system.cpu.totalCpi                          0.856888                       # CPI: Total CPI of All Threads ((Cycle/Count))
system.cpu.ipc                               1.167013                       # IPC: Instructions Per Cycle ((Count/Cycle))
system.cpu.totalIpc                          1.167013                       # IPC: Total IPC of All Threads ((Count/Cycle))
system.cpu.intRegfileReads                  761298793                       # Number of integer regfile reads (Count)
system.cpu.intRegfileWrites                 521080147                       # Number of integer regfile writes (Count)
system.cpu.fpRegfileReads                     1393149                       # Number of floating regfile reads (Count)
system.cpu.fpRegfileWrites                     676148                       # Number of floating regfile writes (Count)
system.cpu.ccRegfileReads                   234864306                       # number of cc regfile reads (Count)
system.cpu.ccRegfileWrites                  247055981                       # number of cc regfile writes (Count)
system.cpu.miscRegfileReads                 296545652                       # number of misc regfile reads (Count)
system.cpu.miscRegfileWrites                       18                       # number of misc regfile writes (Count)
system.cpu.MemDepUnit__0.insertedLoads       98348571                       # Number of loads inserted to the mem dependence unit. (Count)
system.cpu.MemDepUnit__0.insertedStores      52202830                       # Number of stores inserted to the mem dependence unit. (Count)
system.cpu.MemDepUnit__0.conflictingLoads       819652                       # Number of conflicting loads. (Count)
system.cpu.MemDepUnit__0.conflictingStores       632504                       # Number of conflicting stores. (Count)
system.cpu.MemDepUnit__1.insertedLoads              0                       # Number of loads inserted to the mem dependence unit. (Count)
system.cpu.MemDepUnit__1.insertedStores             0                       # Number of stores inserted to the mem dependence unit. (Count)
system.cpu.MemDepUnit__1.conflictingLoads            0                       # Number of conflicting loads. (Count)
system.cpu.MemDepUnit__1.conflictingStores            0                       # Number of conflicting stores. (Count)
system.cpu.MemDepUnit__2.insertedLoads              0                       # Number of loads inserted to the mem dependence unit. (Count)
system.cpu.MemDepUnit__2.insertedStores             0                       # Number of stores inserted to the mem dependence unit. (Count)
system.cpu.MemDepUnit__2.conflictingLoads            0                       # Number of conflicting loads. (Count)
system.cpu.MemDepUnit__2.conflictingStores            0                       # Number of conflicting stores. (Count)
system.cpu.MemDepUnit__3.insertedLoads              0                       # Number of loads inserted to the mem dependence unit. (Count)
system.cpu.MemDepUnit__3.insertedStores             0                       # Number of stores inserted to the mem dependence unit. (Count)
system.cpu.MemDepUnit__3.conflictingLoads            0                       # Number of conflicting loads. (Count)
system.cpu.MemDepUnit__3.conflictingStores            0                       # Number of conflicting stores. (Count)
system.cpu.branchPred.lookups                83784298                       # Number of BP lookups (Count)
system.cpu.branchPred.condPredicted          63503178                       # Number of conditional branches predicted (Count)
system.cpu.branchPred.condIncorrect           6136950                       # Number of conditional branches incorrect (Count)
system.cpu.branchPred.BTBLookups             50675879                       # Number of BTB lookups (Count)
system.cpu.branchPred.BTBUpdates              2630452                       # Number of BTB updates (Count)
system.cpu.branchPred.BTBHits                50669463                       # Number of BTB hits (Count)
system.cpu.branchPred.BTBHitRatio            0.999873                       # BTB Hit Ratio (Ratio)
system.cpu.branchPred.RASUsed                 6794487                       # Number of times the RAS was used to get a target. (Count)
system.cpu.branchPred.RASIncorrect                 17                       # Number of incorrect RAS predictions. (Count)
system.cpu.branchPred.indirectLookups         4861810                       # Number of indirect predictor lookups. (Count)
system.cpu.branchPred.indirectHits            4860172                       # Number of indirect target hits. (Count)
system.cpu.branchPred.indirectMisses             1638                       # Number of indirect misses. (Count)
system.cpu.branchPred.indirectMispredicted        28797                       # Number of mispredicted indirect branches. (Count)
system.cpu.commit.commitSquashedInsts       176736814                       # The number of squashed insts skipped by commit (Count)
system.cpu.commit.commitNonSpecStalls          170490                       # The number of times commit has been forced to stall to communicate backwards (Count)
system.cpu.commit.branchMispredicts           6108190                       # The number of times a branch was mispredicted (Count)
system.cpu.commit.numCommittedDist::samples    200403649                       # Number of insts commited each cycle (Count)
system.cpu.commit.numCommittedDist::mean     2.862752                       # Number of insts commited each cycle (Count)
system.cpu.commit.numCommittedDist::stdev     2.879703                       # Number of insts commited each cycle (Count)
system.cpu.commit.numCommittedDist::underflows            0      0.00%      0.00% # Number of insts commited each cycle (Count)
system.cpu.commit.numCommittedDist::0        65141775     32.51%     32.51% # Number of insts commited each cycle (Count)
system.cpu.commit.numCommittedDist::1        19154737      9.56%     42.06% # Number of insts commited each cycle (Count)
system.cpu.commit.numCommittedDist::2        17294478      8.63%     50.69% # Number of insts commited each cycle (Count)
system.cpu.commit.numCommittedDist::3        37028304     18.48%     69.17% # Number of insts commited each cycle (Count)
system.cpu.commit.numCommittedDist::4        13556391      6.76%     75.93% # Number of insts commited each cycle (Count)
system.cpu.commit.numCommittedDist::5         6123645      3.06%     78.99% # Number of insts commited each cycle (Count)
system.cpu.commit.numCommittedDist::6         5010007      2.50%     81.49% # Number of insts commited each cycle (Count)
system.cpu.commit.numCommittedDist::7         2780900      1.39%     82.88% # Number of insts commited each cycle (Count)
system.cpu.commit.numCommittedDist::8        34313412     17.12%    100.00% # Number of insts commited each cycle (Count)
system.cpu.commit.numCommittedDist::overflows            0      0.00%    100.00% # Number of insts commited each cycle (Count)
system.cpu.commit.numCommittedDist::min_value            0                       # Number of insts commited each cycle (Count)
system.cpu.commit.numCommittedDist::max_value            8                       # Number of insts commited each cycle (Count)
system.cpu.commit.numCommittedDist::total    200403649                       # Number of insts commited each cycle (Count)
system.cpu.commit.instsCommitted            262991506                       # Number of instructions committed (Count)
system.cpu.commit.opsCommitted              573706032                       # Number of ops (including micro ops) committed (Count)
system.cpu.commit.memRefs                   117966259                       # Number of memory references committed (Count)
system.cpu.commit.loads                      78324425                       # Number of loads committed (Count)
system.cpu.commit.amos                              0                       # Number of atomic instructions committed (Count)
system.cpu.commit.membars                      113648                       # Number of memory barriers committed (Count)
system.cpu.commit.branches                   57393783                       # Number of branches committed (Count)
system.cpu.commit.vectorInstructions                0                       # Number of committed Vector instructions. (Count)
system.cpu.commit.floating                     844373                       # Number of committed floating point instructions. (Count)
system.cpu.commit.integer                   562364996                       # Number of committed integer instructions. (Count)
system.cpu.commit.functionCalls               5372673                       # Number of function calls committed. (Count)
system.cpu.commit.committedInstType_0::No_OpClass     10640772      1.85%      1.85% # Class of committed instruction (Count)
system.cpu.commit.committedInstType_0::IntAlu    444494034     77.48%     79.33% # Class of committed instruction (Count)
system.cpu.commit.committedInstType_0::IntMult        59920      0.01%     79.34% # Class of committed instruction (Count)
system.cpu.commit.committedInstType_0::IntDiv         1501      0.00%     79.34% # Class of committed instruction (Count)
system.cpu.commit.committedInstType_0::FloatAdd        43052      0.01%     79.35% # Class of committed instruction (Count)
system.cpu.commit.committedInstType_0::FloatCmp            0      0.00%     79.35% # Class of committed instruction (Count)
system.cpu.commit.committedInstType_0::FloatCvt           32      0.00%     79.35% # Class of committed instruction (Count)
system.cpu.commit.committedInstType_0::FloatMult            0      0.00%     79.35% # Class of committed instruction (Count)
system.cpu.commit.committedInstType_0::FloatMultAcc            0      0.00%     79.35% # Class of committed instruction (Count)
system.cpu.commit.committedInstType_0::FloatDiv            0      0.00%     79.35% # Class of committed instruction (Count)
system.cpu.commit.committedInstType_0::FloatMisc            0      0.00%     79.35% # Class of committed instruction (Count)
system.cpu.commit.committedInstType_0::FloatSqrt            0      0.00%     79.35% # Class of committed instruction (Count)
system.cpu.commit.committedInstType_0::SimdAdd          382      0.00%     79.35% # Class of committed instruction (Count)
system.cpu.commit.committedInstType_0::SimdAddAcc            0      0.00%     79.35% # Class of committed instruction (Count)
system.cpu.commit.committedInstType_0::SimdAlu       114491      0.02%     79.37% # Class of committed instruction (Count)
system.cpu.commit.committedInstType_0::SimdCmp            0      0.00%     79.37% # Class of committed instruction (Count)
system.cpu.commit.committedInstType_0::SimdCvt       114516      0.02%     79.39% # Class of committed instruction (Count)
system.cpu.commit.committedInstType_0::SimdMisc       270865      0.05%     79.44% # Class of committed instruction (Count)
system.cpu.commit.committedInstType_0::SimdMult            0      0.00%     79.44% # Class of committed instruction (Count)
system.cpu.commit.committedInstType_0::SimdMultAcc            0      0.00%     79.44% # Class of committed instruction (Count)
system.cpu.commit.committedInstType_0::SimdShift          208      0.00%     79.44% # Class of committed instruction (Count)
system.cpu.commit.committedInstType_0::SimdShiftAcc            0      0.00%     79.44% # Class of committed instruction (Count)
system.cpu.commit.committedInstType_0::SimdDiv            0      0.00%     79.44% # Class of committed instruction (Count)
system.cpu.commit.committedInstType_0::SimdSqrt            0      0.00%     79.44% # Class of committed instruction (Count)
system.cpu.commit.committedInstType_0::SimdFloatAdd            0      0.00%     79.44% # Class of committed instruction (Count)
system.cpu.commit.committedInstType_0::SimdFloatAlu            0      0.00%     79.44% # Class of committed instruction (Count)
system.cpu.commit.committedInstType_0::SimdFloatCmp            0      0.00%     79.44% # Class of committed instruction (Count)
system.cpu.commit.committedInstType_0::SimdFloatCvt            0      0.00%     79.44% # Class of committed instruction (Count)
system.cpu.commit.committedInstType_0::SimdFloatDiv            0      0.00%     79.44% # Class of committed instruction (Count)
system.cpu.commit.committedInstType_0::SimdFloatMisc            0      0.00%     79.44% # Class of committed instruction (Count)
system.cpu.commit.committedInstType_0::SimdFloatMult            0      0.00%     79.44% # Class of committed instruction (Count)
system.cpu.commit.committedInstType_0::SimdFloatMultAcc            0      0.00%     79.44% # Class of committed instruction (Count)
system.cpu.commit.committedInstType_0::SimdFloatSqrt            0      0.00%     79.44% # Class of committed instruction (Count)
system.cpu.commit.committedInstType_0::SimdReduceAdd            0      0.00%     79.44% # Class of committed instruction (Count)
system.cpu.commit.committedInstType_0::SimdReduceAlu            0      0.00%     79.44% # Class of committed instruction (Count)
system.cpu.commit.committedInstType_0::SimdReduceCmp            0      0.00%     79.44% # Class of committed instruction (Count)
system.cpu.commit.committedInstType_0::SimdFloatReduceAdd            0      0.00%     79.44% # Class of committed instruction (Count)
system.cpu.commit.committedInstType_0::SimdFloatReduceCmp            0      0.00%     79.44% # Class of committed instruction (Count)
system.cpu.commit.committedInstType_0::SimdAes            0      0.00%     79.44% # Class of committed instruction (Count)
system.cpu.commit.committedInstType_0::SimdAesMix            0      0.00%     79.44% # Class of committed instruction (Count)
system.cpu.commit.committedInstType_0::SimdSha1Hash            0      0.00%     79.44% # Class of committed instruction (Count)
system.cpu.commit.committedInstType_0::SimdSha1Hash2            0      0.00%     79.44% # Class of committed instruction (Count)
system.cpu.commit.committedInstType_0::SimdSha256Hash            0      0.00%     79.44% # Class of committed instruction (Count)
system.cpu.commit.committedInstType_0::SimdSha256Hash2            0      0.00%     79.44% # Class of committed instruction (Count)
system.cpu.commit.committedInstType_0::SimdShaSigma2            0      0.00%     79.44% # Class of committed instruction (Count)
system.cpu.commit.committedInstType_0::SimdShaSigma3            0      0.00%     79.44% # Class of committed instruction (Count)
system.cpu.commit.committedInstType_0::SimdPredAlu            0      0.00%     79.44% # Class of committed instruction (Count)
system.cpu.commit.committedInstType_0::MemRead     78238160     13.64%     93.08% # Class of committed instruction (Count)
system.cpu.commit.committedInstType_0::MemWrite     39527040      6.89%     99.96% # Class of committed instruction (Count)
system.cpu.commit.committedInstType_0::FloatMemRead        86265      0.02%     99.98% # Class of committed instruction (Count)
system.cpu.commit.committedInstType_0::FloatMemWrite       114794      0.02%    100.00% # Class of committed instruction (Count)
system.cpu.commit.committedInstType_0::IprAccess            0      0.00%    100.00% # Class of committed instruction (Count)
system.cpu.commit.committedInstType_0::InstPrefetch            0      0.00%    100.00% # Class of committed instruction (Count)
system.cpu.commit.committedInstType_0::total    573706032                       # Class of committed instruction (Count)
system.cpu.commit.commitEligibleSamples      34313412                       # number cycles where commit BW limit reached (Cycle)
system.cpu.dcache.demandHits::cpu.data      122258679                       # number of demand (read+write) hits (Count)
system.cpu.dcache.demandHits::total         122258679                       # number of demand (read+write) hits (Count)
system.cpu.dcache.overallHits::cpu.data     122258679                       # number of overall hits (Count)
system.cpu.dcache.overallHits::total        122258679                       # number of overall hits (Count)
system.cpu.dcache.demandMisses::cpu.data         7316                       # number of demand (read+write) misses (Count)
system.cpu.dcache.demandMisses::total            7316                       # number of demand (read+write) misses (Count)
system.cpu.dcache.overallMisses::cpu.data         7316                       # number of overall misses (Count)
system.cpu.dcache.overallMisses::total           7316                       # number of overall misses (Count)
system.cpu.dcache.demandMissLatency::cpu.data    432566500                       # number of demand (read+write) miss ticks (Tick)
system.cpu.dcache.demandMissLatency::total    432566500                       # number of demand (read+write) miss ticks (Tick)
system.cpu.dcache.overallMissLatency::cpu.data    432566500                       # number of overall miss ticks (Tick)
system.cpu.dcache.overallMissLatency::total    432566500                       # number of overall miss ticks (Tick)
system.cpu.dcache.demandAccesses::cpu.data    122265995                       # number of demand (read+write) accesses (Count)
system.cpu.dcache.demandAccesses::total     122265995                       # number of demand (read+write) accesses (Count)
system.cpu.dcache.overallAccesses::cpu.data    122265995                       # number of overall (read+write) accesses (Count)
system.cpu.dcache.overallAccesses::total    122265995                       # number of overall (read+write) accesses (Count)
system.cpu.dcache.demandMissRate::cpu.data     0.000060                       # miss rate for demand accesses (Ratio)
system.cpu.dcache.demandMissRate::total      0.000060                       # miss rate for demand accesses (Ratio)
system.cpu.dcache.overallMissRate::cpu.data     0.000060                       # miss rate for overall accesses (Ratio)
system.cpu.dcache.overallMissRate::total     0.000060                       # miss rate for overall accesses (Ratio)
system.cpu.dcache.demandAvgMissLatency::cpu.data 59126.093494                       # average overall miss latency in ticks ((Tick/Count))
system.cpu.dcache.demandAvgMissLatency::total 59126.093494                       # average overall miss latency in ticks ((Tick/Count))
system.cpu.dcache.overallAvgMissLatency::cpu.data 59126.093494                       # average overall miss latency ((Tick/Count))
system.cpu.dcache.overallAvgMissLatency::total 59126.093494                       # average overall miss latency ((Tick/Count))
system.cpu.dcache.blockedCycles::no_mshrs        14731                       # number of cycles access was blocked (Cycle)
system.cpu.dcache.blockedCycles::no_targets            0                       # number of cycles access was blocked (Cycle)
system.cpu.dcache.blockedCauses::no_mshrs          344                       # number of times access was blocked (Count)
system.cpu.dcache.blockedCauses::no_targets            0                       # number of times access was blocked (Count)
system.cpu.dcache.avgBlocked::no_mshrs      42.822674                       # average number of cycles each access was blocked ((Cycle/Count))
system.cpu.dcache.avgBlocked::no_targets          nan                       # average number of cycles each access was blocked ((Cycle/Count))
system.cpu.dcache.writebacks::writebacks          419                       # number of writebacks (Count)
system.cpu.dcache.writebacks::total               419                       # number of writebacks (Count)
system.cpu.dcache.demandMshrHits::cpu.data         5186                       # number of demand (read+write) MSHR hits (Count)
system.cpu.dcache.demandMshrHits::total          5186                       # number of demand (read+write) MSHR hits (Count)
system.cpu.dcache.overallMshrHits::cpu.data         5186                       # number of overall MSHR hits (Count)
system.cpu.dcache.overallMshrHits::total         5186                       # number of overall MSHR hits (Count)
system.cpu.dcache.demandMshrMisses::cpu.data         2130                       # number of demand (read+write) MSHR misses (Count)
system.cpu.dcache.demandMshrMisses::total         2130                       # number of demand (read+write) MSHR misses (Count)
system.cpu.dcache.overallMshrMisses::cpu.data         2130                       # number of overall MSHR misses (Count)
system.cpu.dcache.overallMshrMisses::total         2130                       # number of overall MSHR misses (Count)
system.cpu.dcache.demandMshrMissLatency::cpu.data    142858000                       # number of demand (read+write) MSHR miss ticks (Tick)
system.cpu.dcache.demandMshrMissLatency::total    142858000                       # number of demand (read+write) MSHR miss ticks (Tick)
system.cpu.dcache.overallMshrMissLatency::cpu.data    142858000                       # number of overall MSHR miss ticks (Tick)
system.cpu.dcache.overallMshrMissLatency::total    142858000                       # number of overall MSHR miss ticks (Tick)
system.cpu.dcache.demandMshrMissRate::cpu.data     0.000017                       # mshr miss ratio for demand accesses (Ratio)
system.cpu.dcache.demandMshrMissRate::total     0.000017                       # mshr miss ratio for demand accesses (Ratio)
system.cpu.dcache.overallMshrMissRate::cpu.data     0.000017                       # mshr miss ratio for overall accesses (Ratio)
system.cpu.dcache.overallMshrMissRate::total     0.000017                       # mshr miss ratio for overall accesses (Ratio)
system.cpu.dcache.demandAvgMshrMissLatency::cpu.data 67069.483568                       # average overall mshr miss latency ((Tick/Count))
system.cpu.dcache.demandAvgMshrMissLatency::total 67069.483568                       # average overall mshr miss latency ((Tick/Count))
system.cpu.dcache.overallAvgMshrMissLatency::cpu.data 67069.483568                       # average overall mshr miss latency ((Tick/Count))
system.cpu.dcache.overallAvgMshrMissLatency::total 67069.483568                       # average overall mshr miss latency ((Tick/Count))
system.cpu.dcache.replacements                   1129                       # number of replacements (Count)
system.cpu.dcache.LockedRMWReadReq.hits::cpu.data        56821                       # number of LockedRMWReadReq hits (Count)
system.cpu.dcache.LockedRMWReadReq.hits::total        56821                       # number of LockedRMWReadReq hits (Count)
system.cpu.dcache.LockedRMWReadReq.misses::cpu.data            3                       # number of LockedRMWReadReq misses (Count)
system.cpu.dcache.LockedRMWReadReq.misses::total            3                       # number of LockedRMWReadReq misses (Count)
system.cpu.dcache.LockedRMWReadReq.missLatency::cpu.data       106500                       # number of LockedRMWReadReq miss ticks (Tick)
system.cpu.dcache.LockedRMWReadReq.missLatency::total       106500                       # number of LockedRMWReadReq miss ticks (Tick)
system.cpu.dcache.LockedRMWReadReq.accesses::cpu.data        56824                       # number of LockedRMWReadReq accesses(hits+misses) (Count)
system.cpu.dcache.LockedRMWReadReq.accesses::total        56824                       # number of LockedRMWReadReq accesses(hits+misses) (Count)
system.cpu.dcache.LockedRMWReadReq.missRate::cpu.data     0.000053                       # miss rate for LockedRMWReadReq accesses (Ratio)
system.cpu.dcache.LockedRMWReadReq.missRate::total     0.000053                       # miss rate for LockedRMWReadReq accesses (Ratio)
system.cpu.dcache.LockedRMWReadReq.avgMissLatency::cpu.data        35500                       # average LockedRMWReadReq miss latency ((Tick/Count))
system.cpu.dcache.LockedRMWReadReq.avgMissLatency::total        35500                       # average LockedRMWReadReq miss latency ((Tick/Count))
system.cpu.dcache.LockedRMWReadReq.mshrMisses::cpu.data            3                       # number of LockedRMWReadReq MSHR misses (Count)
system.cpu.dcache.LockedRMWReadReq.mshrMisses::total            3                       # number of LockedRMWReadReq MSHR misses (Count)
system.cpu.dcache.LockedRMWReadReq.mshrMissLatency::cpu.data    213301500                       # number of LockedRMWReadReq MSHR miss ticks (Tick)
system.cpu.dcache.LockedRMWReadReq.mshrMissLatency::total    213301500                       # number of LockedRMWReadReq MSHR miss ticks (Tick)
system.cpu.dcache.LockedRMWReadReq.mshrMissRate::cpu.data     0.000053                       # mshr miss rate for LockedRMWReadReq accesses (Ratio)
system.cpu.dcache.LockedRMWReadReq.mshrMissRate::total     0.000053                       # mshr miss rate for LockedRMWReadReq accesses (Ratio)
system.cpu.dcache.LockedRMWReadReq.avgMshrMissLatency::cpu.data     71100500                       # average LockedRMWReadReq mshr miss latency ((Tick/Count))
system.cpu.dcache.LockedRMWReadReq.avgMshrMissLatency::total     71100500                       # average LockedRMWReadReq mshr miss latency ((Tick/Count))
system.cpu.dcache.LockedRMWWriteReq.hits::cpu.data        56824                       # number of LockedRMWWriteReq hits (Count)
system.cpu.dcache.LockedRMWWriteReq.hits::total        56824                       # number of LockedRMWWriteReq hits (Count)
system.cpu.dcache.LockedRMWWriteReq.accesses::cpu.data        56824                       # number of LockedRMWWriteReq accesses(hits+misses) (Count)
system.cpu.dcache.LockedRMWWriteReq.accesses::total        56824                       # number of LockedRMWWriteReq accesses(hits+misses) (Count)
system.cpu.dcache.ReadReq.hits::cpu.data     82674290                       # number of ReadReq hits (Count)
system.cpu.dcache.ReadReq.hits::total        82674290                       # number of ReadReq hits (Count)
system.cpu.dcache.ReadReq.misses::cpu.data         6694                       # number of ReadReq misses (Count)
system.cpu.dcache.ReadReq.misses::total          6694                       # number of ReadReq misses (Count)
system.cpu.dcache.ReadReq.missLatency::cpu.data    388799000                       # number of ReadReq miss ticks (Tick)
system.cpu.dcache.ReadReq.missLatency::total    388799000                       # number of ReadReq miss ticks (Tick)
system.cpu.dcache.ReadReq.accesses::cpu.data     82680984                       # number of ReadReq accesses(hits+misses) (Count)
system.cpu.dcache.ReadReq.accesses::total     82680984                       # number of ReadReq accesses(hits+misses) (Count)
system.cpu.dcache.ReadReq.missRate::cpu.data     0.000081                       # miss rate for ReadReq accesses (Ratio)
system.cpu.dcache.ReadReq.missRate::total     0.000081                       # miss rate for ReadReq accesses (Ratio)
system.cpu.dcache.ReadReq.avgMissLatency::cpu.data 58081.714969                       # average ReadReq miss latency ((Tick/Count))
system.cpu.dcache.ReadReq.avgMissLatency::total 58081.714969                       # average ReadReq miss latency ((Tick/Count))
system.cpu.dcache.ReadReq.mshrHits::cpu.data         5183                       # number of ReadReq MSHR hits (Count)
system.cpu.dcache.ReadReq.mshrHits::total         5183                       # number of ReadReq MSHR hits (Count)
system.cpu.dcache.ReadReq.mshrMisses::cpu.data         1511                       # number of ReadReq MSHR misses (Count)
system.cpu.dcache.ReadReq.mshrMisses::total         1511                       # number of ReadReq MSHR misses (Count)
system.cpu.dcache.ReadReq.mshrMissLatency::cpu.data     99937500                       # number of ReadReq MSHR miss ticks (Tick)
system.cpu.dcache.ReadReq.mshrMissLatency::total     99937500                       # number of ReadReq MSHR miss ticks (Tick)
system.cpu.dcache.ReadReq.mshrMissRate::cpu.data     0.000018                       # mshr miss rate for ReadReq accesses (Ratio)
system.cpu.dcache.ReadReq.mshrMissRate::total     0.000018                       # mshr miss rate for ReadReq accesses (Ratio)
system.cpu.dcache.ReadReq.avgMshrMissLatency::cpu.data 66139.973527                       # average ReadReq mshr miss latency ((Tick/Count))
system.cpu.dcache.ReadReq.avgMshrMissLatency::total 66139.973527                       # average ReadReq mshr miss latency ((Tick/Count))
system.cpu.dcache.WriteReq.hits::cpu.data     39584389                       # number of WriteReq hits (Count)
system.cpu.dcache.WriteReq.hits::total       39584389                       # number of WriteReq hits (Count)
system.cpu.dcache.WriteReq.misses::cpu.data          622                       # number of WriteReq misses (Count)
system.cpu.dcache.WriteReq.misses::total          622                       # number of WriteReq misses (Count)
system.cpu.dcache.WriteReq.missLatency::cpu.data     43767500                       # number of WriteReq miss ticks (Tick)
system.cpu.dcache.WriteReq.missLatency::total     43767500                       # number of WriteReq miss ticks (Tick)
system.cpu.dcache.WriteReq.accesses::cpu.data     39585011                       # number of WriteReq accesses(hits+misses) (Count)
system.cpu.dcache.WriteReq.accesses::total     39585011                       # number of WriteReq accesses(hits+misses) (Count)
system.cpu.dcache.WriteReq.missRate::cpu.data     0.000016                       # miss rate for WriteReq accesses (Ratio)
system.cpu.dcache.WriteReq.missRate::total     0.000016                       # miss rate for WriteReq accesses (Ratio)
system.cpu.dcache.WriteReq.avgMissLatency::cpu.data 70365.755627                       # average WriteReq miss latency ((Tick/Count))
system.cpu.dcache.WriteReq.avgMissLatency::total 70365.755627                       # average WriteReq miss latency ((Tick/Count))
system.cpu.dcache.WriteReq.mshrHits::cpu.data            3                       # number of WriteReq MSHR hits (Count)
system.cpu.dcache.WriteReq.mshrHits::total            3                       # number of WriteReq MSHR hits (Count)
system.cpu.dcache.WriteReq.mshrMisses::cpu.data          619                       # number of WriteReq MSHR misses (Count)
system.cpu.dcache.WriteReq.mshrMisses::total          619                       # number of WriteReq MSHR misses (Count)
system.cpu.dcache.WriteReq.mshrMissLatency::cpu.data     42920500                       # number of WriteReq MSHR miss ticks (Tick)
system.cpu.dcache.WriteReq.mshrMissLatency::total     42920500                       # number of WriteReq MSHR miss ticks (Tick)
system.cpu.dcache.WriteReq.mshrMissRate::cpu.data     0.000016                       # mshr miss rate for WriteReq accesses (Ratio)
system.cpu.dcache.WriteReq.mshrMissRate::total     0.000016                       # mshr miss rate for WriteReq accesses (Ratio)
system.cpu.dcache.WriteReq.avgMshrMissLatency::cpu.data 69338.449111                       # average WriteReq mshr miss latency ((Tick/Count))
system.cpu.dcache.WriteReq.avgMshrMissLatency::total 69338.449111                       # average WriteReq mshr miss latency ((Tick/Count))
system.cpu.dcache.power_state.pwrStateResidencyTicks::UNDEFINED 112677149000                       # Cumulative time (in ticks) in various power states (Tick)
system.cpu.dcache.tags.tagsInUse          1003.528188                       # Average ticks per tags in use ((Tick/Count))
system.cpu.dcache.tags.totalRefs            122374457                       # Total number of references to valid blocks. (Count)
system.cpu.dcache.tags.sampledRefs               2133                       # Sample count of references to valid blocks. (Count)
system.cpu.dcache.tags.avgRefs           57371.991092                       # Average number of references to valid blocks. ((Count/Count))
system.cpu.dcache.tags.warmupTick              170500                       # The tick when the warmup percentage was hit. (Tick)
system.cpu.dcache.tags.occupancies::cpu.data  1003.528188                       # Average occupied blocks per tick, per requestor ((Count/Tick))
system.cpu.dcache.tags.avgOccs::cpu.data     0.980008                       # Average percentage of cache occupancy ((Ratio/Tick))
system.cpu.dcache.tags.avgOccs::total        0.980008                       # Average percentage of cache occupancy ((Ratio/Tick))
system.cpu.dcache.tags.occupanciesTaskId::1024         1004                       # Occupied blocks per task id (Count)
system.cpu.dcache.tags.ageTaskId_1024::0           22                       # Occupied blocks per task id, per block age (Count)
system.cpu.dcache.tags.ageTaskId_1024::4          982                       # Occupied blocks per task id, per block age (Count)
system.cpu.dcache.tags.ratioOccsTaskId::1024     0.980469                       # Ratio of occupied blocks and all blocks, per task id (Ratio)
system.cpu.dcache.tags.tagAccesses          244761419                       # Number of tag accesses (Count)
system.cpu.dcache.tags.dataAccesses         244761419                       # Number of data accesses (Count)
system.cpu.dcache.tags.power_state.pwrStateResidencyTicks::UNDEFINED 112677149000                       # Cumulative time (in ticks) in various power states (Tick)
system.cpu.decode.idleCycles                 69563875                       # Number of cycles decode is idle (Cycle)
system.cpu.decode.blockedCycles              19766080                       # Number of cycles decode is blocked (Cycle)
system.cpu.decode.runCycles                 124865928                       # Number of cycles decode is running (Cycle)
system.cpu.decode.unblockCycles               4925564                       # Number of cycles decode is unblocking (Cycle)
system.cpu.decode.squashCycles                6123603                       # Number of cycles decode is squashing (Cycle)
system.cpu.decode.branchResolved             49109905                       # Number of times decode resolved a branch (Count)
system.cpu.decode.branchMispred                 43320                       # Number of times decode detected a branch misprediction (Count)
system.cpu.decode.decodedInsts              836274007                       # Number of instructions handled by decode (Count)
system.cpu.decode.squashedInsts                  3262                       # Number of squashed instructions handled by decode (Count)
system.cpu.fetch.icacheStallCycles           76945194                       # Number of cycles fetch is stalled on an Icache miss (Cycle)
system.cpu.fetch.insts                      391096819                       # Number of instructions fetch has processed (Count)
system.cpu.fetch.branches                    83784298                       # Number of branches that fetch encountered (Count)
system.cpu.fetch.predictedBranches           62324122                       # Number of branches that fetch has predicted taken (Count)
system.cpu.fetch.cycles                     141684976                       # Number of cycles fetch has run and was not squashing or blocked (Cycle)
system.cpu.fetch.squashCycles                12333778                       # Number of cycles fetch has spent squashing (Cycle)
system.cpu.fetch.miscStallCycles                28758                       # Number of cycles fetch has spent waiting on interrupts, or bad addresses, or out of MSHRs (Cycle)
system.cpu.fetch.pendingTrapStallCycles        419233                       # Number of stall cycles due to pending traps (Cycle)
system.cpu.fetch.cacheLines                  73008992                       # Number of cache lines fetched (Count)
system.cpu.fetch.icacheSquashes               2406417                       # Number of outstanding Icache misses that were squashed (Count)
system.cpu.fetch.nisnDist::samples          225245050                       # Number of instructions fetched each cycle (Total) (Count)
system.cpu.fetch.nisnDist::mean              3.812500                       # Number of instructions fetched each cycle (Total) (Count)
system.cpu.fetch.nisnDist::stdev             3.513527                       # Number of instructions fetched each cycle (Total) (Count)
system.cpu.fetch.nisnDist::underflows               0      0.00%      0.00% # Number of instructions fetched each cycle (Total) (Count)
system.cpu.fetch.nisnDist::0                 87948640     39.05%     39.05% # Number of instructions fetched each cycle (Total) (Count)
system.cpu.fetch.nisnDist::1                 10606189      4.71%     43.75% # Number of instructions fetched each cycle (Total) (Count)
system.cpu.fetch.nisnDist::2                  4927061      2.19%     45.94% # Number of instructions fetched each cycle (Total) (Count)
system.cpu.fetch.nisnDist::3                  1796861      0.80%     46.74% # Number of instructions fetched each cycle (Total) (Count)
system.cpu.fetch.nisnDist::4                  5263392      2.34%     49.08% # Number of instructions fetched each cycle (Total) (Count)
system.cpu.fetch.nisnDist::5                 22320382      9.91%     58.99% # Number of instructions fetched each cycle (Total) (Count)
system.cpu.fetch.nisnDist::6                 17849361      7.92%     66.91% # Number of instructions fetched each cycle (Total) (Count)
system.cpu.fetch.nisnDist::7                  3121065      1.39%     68.30% # Number of instructions fetched each cycle (Total) (Count)
system.cpu.fetch.nisnDist::8                 71412099     31.70%    100.00% # Number of instructions fetched each cycle (Total) (Count)
system.cpu.fetch.nisnDist::overflows                0      0.00%    100.00% # Number of instructions fetched each cycle (Total) (Count)
system.cpu.fetch.nisnDist::min_value                0                       # Number of instructions fetched each cycle (Total) (Count)
system.cpu.fetch.nisnDist::max_value                8                       # Number of instructions fetched each cycle (Total) (Count)
system.cpu.fetch.nisnDist::total            225245050                       # Number of instructions fetched each cycle (Total) (Count)
system.cpu.fetch.branchRate                  0.371789                       # Number of branch fetches per cycle (Ratio)
system.cpu.fetch.rate                        1.735475                       # Number of inst fetches per cycle ((Count/Cycle))
system.cpu.icache.demandHits::cpu.inst       72945813                       # number of demand (read+write) hits (Count)
system.cpu.icache.demandHits::total          72945813                       # number of demand (read+write) hits (Count)
system.cpu.icache.overallHits::cpu.inst      72945813                       # number of overall hits (Count)
system.cpu.icache.overallHits::total         72945813                       # number of overall hits (Count)
system.cpu.icache.demandMisses::cpu.inst        63179                       # number of demand (read+write) misses (Count)
system.cpu.icache.demandMisses::total           63179                       # number of demand (read+write) misses (Count)
system.cpu.icache.overallMisses::cpu.inst        63179                       # number of overall misses (Count)
system.cpu.icache.overallMisses::total          63179                       # number of overall misses (Count)
system.cpu.icache.demandMissLatency::cpu.inst    934444500                       # number of demand (read+write) miss ticks (Tick)
system.cpu.icache.demandMissLatency::total    934444500                       # number of demand (read+write) miss ticks (Tick)
system.cpu.icache.overallMissLatency::cpu.inst    934444500                       # number of overall miss ticks (Tick)
system.cpu.icache.overallMissLatency::total    934444500                       # number of overall miss ticks (Tick)
system.cpu.icache.demandAccesses::cpu.inst     73008992                       # number of demand (read+write) accesses (Count)
system.cpu.icache.demandAccesses::total      73008992                       # number of demand (read+write) accesses (Count)
system.cpu.icache.overallAccesses::cpu.inst     73008992                       # number of overall (read+write) accesses (Count)
system.cpu.icache.overallAccesses::total     73008992                       # number of overall (read+write) accesses (Count)
system.cpu.icache.demandMissRate::cpu.inst     0.000865                       # miss rate for demand accesses (Ratio)
system.cpu.icache.demandMissRate::total      0.000865                       # miss rate for demand accesses (Ratio)
system.cpu.icache.overallMissRate::cpu.inst     0.000865                       # miss rate for overall accesses (Ratio)
system.cpu.icache.overallMissRate::total     0.000865                       # miss rate for overall accesses (Ratio)
system.cpu.icache.demandAvgMissLatency::cpu.inst 14790.428782                       # average overall miss latency in ticks ((Tick/Count))
system.cpu.icache.demandAvgMissLatency::total 14790.428782                       # average overall miss latency in ticks ((Tick/Count))
system.cpu.icache.overallAvgMissLatency::cpu.inst 14790.428782                       # average overall miss latency ((Tick/Count))
system.cpu.icache.overallAvgMissLatency::total 14790.428782                       # average overall miss latency ((Tick/Count))
system.cpu.icache.blockedCycles::no_mshrs          474                       # number of cycles access was blocked (Cycle)
system.cpu.icache.blockedCycles::no_targets            0                       # number of cycles access was blocked (Cycle)
system.cpu.icache.blockedCauses::no_mshrs            6                       # number of times access was blocked (Count)
system.cpu.icache.blockedCauses::no_targets            0                       # number of times access was blocked (Count)
system.cpu.icache.avgBlocked::no_mshrs             79                       # average number of cycles each access was blocked ((Cycle/Count))
system.cpu.icache.avgBlocked::no_targets          nan                       # average number of cycles each access was blocked ((Cycle/Count))
system.cpu.icache.demandMshrHits::cpu.inst          714                       # number of demand (read+write) MSHR hits (Count)
system.cpu.icache.demandMshrHits::total           714                       # number of demand (read+write) MSHR hits (Count)
system.cpu.icache.overallMshrHits::cpu.inst          714                       # number of overall MSHR hits (Count)
system.cpu.icache.overallMshrHits::total          714                       # number of overall MSHR hits (Count)
system.cpu.icache.demandMshrMisses::cpu.inst        62465                       # number of demand (read+write) MSHR misses (Count)
system.cpu.icache.demandMshrMisses::total        62465                       # number of demand (read+write) MSHR misses (Count)
system.cpu.icache.overallMshrMisses::cpu.inst        62465                       # number of overall MSHR misses (Count)
system.cpu.icache.overallMshrMisses::total        62465                       # number of overall MSHR misses (Count)
system.cpu.icache.demandMshrMissLatency::cpu.inst    838509500                       # number of demand (read+write) MSHR miss ticks (Tick)
system.cpu.icache.demandMshrMissLatency::total    838509500                       # number of demand (read+write) MSHR miss ticks (Tick)
system.cpu.icache.overallMshrMissLatency::cpu.inst    838509500                       # number of overall MSHR miss ticks (Tick)
system.cpu.icache.overallMshrMissLatency::total    838509500                       # number of overall MSHR miss ticks (Tick)
system.cpu.icache.demandMshrMissRate::cpu.inst     0.000856                       # mshr miss ratio for demand accesses (Ratio)
system.cpu.icache.demandMshrMissRate::total     0.000856                       # mshr miss ratio for demand accesses (Ratio)
system.cpu.icache.overallMshrMissRate::cpu.inst     0.000856                       # mshr miss ratio for overall accesses (Ratio)
system.cpu.icache.overallMshrMissRate::total     0.000856                       # mshr miss ratio for overall accesses (Ratio)
system.cpu.icache.demandAvgMshrMissLatency::cpu.inst 13423.669255                       # average overall mshr miss latency ((Tick/Count))
system.cpu.icache.demandAvgMshrMissLatency::total 13423.669255                       # average overall mshr miss latency ((Tick/Count))
system.cpu.icache.overallAvgMshrMissLatency::cpu.inst 13423.669255                       # average overall mshr miss latency ((Tick/Count))
system.cpu.icache.overallAvgMshrMissLatency::total 13423.669255                       # average overall mshr miss latency ((Tick/Count))
system.cpu.icache.replacements                  62208                       # number of replacements (Count)
system.cpu.icache.ReadReq.hits::cpu.inst     72945813                       # number of ReadReq hits (Count)
system.cpu.icache.ReadReq.hits::total        72945813                       # number of ReadReq hits (Count)
system.cpu.icache.ReadReq.misses::cpu.inst        63179                       # number of ReadReq misses (Count)
system.cpu.icache.ReadReq.misses::total         63179                       # number of ReadReq misses (Count)
system.cpu.icache.ReadReq.missLatency::cpu.inst    934444500                       # number of ReadReq miss ticks (Tick)
system.cpu.icache.ReadReq.missLatency::total    934444500                       # number of ReadReq miss ticks (Tick)
system.cpu.icache.ReadReq.accesses::cpu.inst     73008992                       # number of ReadReq accesses(hits+misses) (Count)
system.cpu.icache.ReadReq.accesses::total     73008992                       # number of ReadReq accesses(hits+misses) (Count)
system.cpu.icache.ReadReq.missRate::cpu.inst     0.000865                       # miss rate for ReadReq accesses (Ratio)
system.cpu.icache.ReadReq.missRate::total     0.000865                       # miss rate for ReadReq accesses (Ratio)
system.cpu.icache.ReadReq.avgMissLatency::cpu.inst 14790.428782                       # average ReadReq miss latency ((Tick/Count))
system.cpu.icache.ReadReq.avgMissLatency::total 14790.428782                       # average ReadReq miss latency ((Tick/Count))
system.cpu.icache.ReadReq.mshrHits::cpu.inst          714                       # number of ReadReq MSHR hits (Count)
system.cpu.icache.ReadReq.mshrHits::total          714                       # number of ReadReq MSHR hits (Count)
system.cpu.icache.ReadReq.mshrMisses::cpu.inst        62465                       # number of ReadReq MSHR misses (Count)
system.cpu.icache.ReadReq.mshrMisses::total        62465                       # number of ReadReq MSHR misses (Count)
system.cpu.icache.ReadReq.mshrMissLatency::cpu.inst    838509500                       # number of ReadReq MSHR miss ticks (Tick)
system.cpu.icache.ReadReq.mshrMissLatency::total    838509500                       # number of ReadReq MSHR miss ticks (Tick)
system.cpu.icache.ReadReq.mshrMissRate::cpu.inst     0.000856                       # mshr miss rate for ReadReq accesses (Ratio)
system.cpu.icache.ReadReq.mshrMissRate::total     0.000856                       # mshr miss rate for ReadReq accesses (Ratio)
system.cpu.icache.ReadReq.avgMshrMissLatency::cpu.inst 13423.669255                       # average ReadReq mshr miss latency ((Tick/Count))
system.cpu.icache.ReadReq.avgMshrMissLatency::total 13423.669255                       # average ReadReq mshr miss latency ((Tick/Count))
system.cpu.icache.power_state.pwrStateResidencyTicks::UNDEFINED 112677149000                       # Cumulative time (in ticks) in various power states (Tick)
system.cpu.icache.tags.tagsInUse           255.967628                       # Average ticks per tags in use ((Tick/Count))
system.cpu.icache.tags.totalRefs             73008277                       # Total number of references to valid blocks. (Count)
system.cpu.icache.tags.sampledRefs              62464                       # Sample count of references to valid blocks. (Count)
system.cpu.icache.tags.avgRefs            1168.805664                       # Average number of references to valid blocks. ((Count/Count))
system.cpu.icache.tags.warmupTick               82000                       # The tick when the warmup percentage was hit. (Tick)
system.cpu.icache.tags.occupancies::cpu.inst   255.967628                       # Average occupied blocks per tick, per requestor ((Count/Tick))
system.cpu.icache.tags.avgOccs::cpu.inst     0.999874                       # Average percentage of cache occupancy ((Ratio/Tick))
system.cpu.icache.tags.avgOccs::total        0.999874                       # Average percentage of cache occupancy ((Ratio/Tick))
system.cpu.icache.tags.occupanciesTaskId::1024          256                       # Occupied blocks per task id (Count)
system.cpu.icache.tags.ageTaskId_1024::0          112                       # Occupied blocks per task id, per block age (Count)
system.cpu.icache.tags.ageTaskId_1024::4          144                       # Occupied blocks per task id, per block age (Count)
system.cpu.icache.tags.ratioOccsTaskId::1024            1                       # Ratio of occupied blocks and all blocks, per task id (Ratio)
system.cpu.icache.tags.tagAccesses          146080448                       # Number of tag accesses (Count)
system.cpu.icache.tags.dataAccesses         146080448                       # Number of data accesses (Count)
system.cpu.icache.tags.power_state.pwrStateResidencyTicks::UNDEFINED 112677149000                       # Cumulative time (in ticks) in various power states (Tick)
system.cpu.iew.idleCycles                           0                       # Number of cycles IEW is idle (Cycle)
system.cpu.iew.squashCycles                   6123603                       # Number of cycles IEW is squashing (Cycle)
system.cpu.iew.blockCycles                   19102024                       # Number of cycles IEW is blocking (Cycle)
system.cpu.iew.unblockCycles                    44998                       # Number of cycles IEW is unblocking (Cycle)
system.cpu.iew.dispatchedInsts              750912249                       # Number of instructions dispatched to IQ (Count)
system.cpu.iew.dispSquashedInsts                  308                       # Number of squashed instructions skipped by dispatch (Count)
system.cpu.iew.dispLoadInsts                 98348571                       # Number of dispatched load instructions (Count)
system.cpu.iew.dispStoreInsts                52202830                       # Number of dispatched store instructions (Count)
system.cpu.iew.dispNonSpecInsts                 56994                       # Number of dispatched non-speculative instructions (Count)
system.cpu.iew.iqFullEvents                     28843                       # Number of times the IQ has become full, causing a stall (Count)
system.cpu.iew.lsqFullEvents                     1605                       # Number of times the LSQ has become full, causing a stall (Count)
system.cpu.iew.memOrderViolationEvents           1097                       # Number of memory order violations (Count)
system.cpu.iew.predictedTakenIncorrect        4303077                       # Number of branches that were predicted taken incorrectly (Count)
system.cpu.iew.predictedNotTakenIncorrect      3043139                       # Number of branches that were predicted not taken incorrectly (Count)
system.cpu.iew.branchMispredicts              7346216                       # Number of branch mispredicts detected at execute (Count)
system.cpu.iew.instsToCommit                691434938                       # Cumulative count of insts sent to commit (Count)
system.cpu.iew.writebackCount               688747393                       # Cumulative count of insts written-back (Count)
system.cpu.iew.producerInst                 475689460                       # Number of instructions producing a value (Count)
system.cpu.iew.consumerInst                 608697993                       # Number of instructions consuming a value (Count)
system.cpu.iew.wbRate                        3.056287                       # Insts written-back per cycle ((Count/Cycle))
system.cpu.iew.wbFanout                      0.781487                       # Average fanout of values written-back ((Count/Count))
system.cpu.interrupts.clk_domain.clock           8000                       # Clock period in ticks (Tick)
system.cpu.lsq0.forwLoads                     9595795                       # Number of loads that had data forwarded from stores (Count)
system.cpu.lsq0.squashedLoads                20024146                       # Number of loads squashed (Count)
system.cpu.lsq0.ignoredResponses                   25                       # Number of memory responses ignored because the instruction is squashed (Count)
system.cpu.lsq0.memOrderViolation                1097                       # Number of memory ordering violations (Count)
system.cpu.lsq0.squashedStores               12560996                       # Number of stores squashed (Count)
system.cpu.lsq0.rescheduledLoads                12952                       # Number of loads that were rescheduled (Count)
system.cpu.lsq0.blockedByCache                    257                       # Number of times an access to memory failed due to the cache being blocked (Count)
system.cpu.lsq0.loadToUse::samples           78324425                       # Distribution of cycle latency between the first time a load is issued and its completion (Unspecified)
system.cpu.lsq0.loadToUse::mean              3.068332                       # Distribution of cycle latency between the first time a load is issued and its completion (Unspecified)
system.cpu.lsq0.loadToUse::stdev             1.275734                       # Distribution of cycle latency between the first time a load is issued and its completion (Unspecified)
system.cpu.lsq0.loadToUse::0-9               78306203     99.98%     99.98% # Distribution of cycle latency between the first time a load is issued and its completion (Unspecified)
system.cpu.lsq0.loadToUse::10-19                12545      0.02%     99.99% # Distribution of cycle latency between the first time a load is issued and its completion (Unspecified)
system.cpu.lsq0.loadToUse::20-29                  496      0.00%     99.99% # Distribution of cycle latency between the first time a load is issued and its completion (Unspecified)
system.cpu.lsq0.loadToUse::30-39                   62      0.00%     99.99% # Distribution of cycle latency between the first time a load is issued and its completion (Unspecified)
system.cpu.lsq0.loadToUse::40-49                   50      0.00%     99.99% # Distribution of cycle latency between the first time a load is issued and its completion (Unspecified)
system.cpu.lsq0.loadToUse::50-59                   66      0.00%     99.99% # Distribution of cycle latency between the first time a load is issued and its completion (Unspecified)
system.cpu.lsq0.loadToUse::60-69                   79      0.00%     99.99% # Distribution of cycle latency between the first time a load is issued and its completion (Unspecified)
system.cpu.lsq0.loadToUse::70-79                  180      0.00%     99.99% # Distribution of cycle latency between the first time a load is issued and its completion (Unspecified)
system.cpu.lsq0.loadToUse::80-89                  107      0.00%     99.99% # Distribution of cycle latency between the first time a load is issued and its completion (Unspecified)
system.cpu.lsq0.loadToUse::90-99                   70      0.00%     99.99% # Distribution of cycle latency between the first time a load is issued and its completion (Unspecified)
system.cpu.lsq0.loadToUse::100-109                103      0.00%     99.99% # Distribution of cycle latency between the first time a load is issued and its completion (Unspecified)
system.cpu.lsq0.loadToUse::110-119                164      0.00%     99.99% # Distribution of cycle latency between the first time a load is issued and its completion (Unspecified)
system.cpu.lsq0.loadToUse::120-129                525      0.00%    100.00% # Distribution of cycle latency between the first time a load is issued and its completion (Unspecified)
system.cpu.lsq0.loadToUse::130-139               2360      0.00%    100.00% # Distribution of cycle latency between the first time a load is issued and its completion (Unspecified)
system.cpu.lsq0.loadToUse::140-149                476      0.00%    100.00% # Distribution of cycle latency between the first time a load is issued and its completion (Unspecified)
system.cpu.lsq0.loadToUse::150-159                189      0.00%    100.00% # Distribution of cycle latency between the first time a load is issued and its completion (Unspecified)
[...]
system.mem_ctrl.dram.bytesWritten::total          384                       # Number of bytes written to this memory (Byte)
system.mem_ctrl.dram.numReads::cpu.inst          1432                       # Number of read requests responded to by this memory (Count)
system.mem_ctrl.dram.numReads::cpu.data          1899                       # Number of read requests responded to by this memory (Count)
system.mem_ctrl.dram.numReads::total             3331                       # Number of read requests responded to by this memory (Count)
system.mem_ctrl.dram.numWrites::writebacks            6                       # Number of write requests responded to by this memory (Count)
system.mem_ctrl.dram.numWrites::total               6                       # Number of write requests responded to by this memory (Count)
system.mem_ctrl.dram.bwRead::cpu.inst          813368                       # Total read bandwidth from this memory ((Byte/Second))
system.mem_ctrl.dram.bwRead::cpu.data         1078622                       # Total read bandwidth from this memory ((Byte/Second))
system.mem_ctrl.dram.bwRead::total            1891990                       # Total read bandwidth from this memory ((Byte/Second))
system.mem_ctrl.dram.bwInstRead::cpu.inst       813368                       # Instruction read bandwidth from this memory ((Byte/Second))
system.mem_ctrl.dram.bwInstRead::total         813368                       # Instruction read bandwidth from this memory ((Byte/Second))
system.mem_ctrl.dram.bwWrite::writebacks         3408                       # Write bandwidth from this memory ((Byte/Second))
system.mem_ctrl.dram.bwWrite::total              3408                       # Write bandwidth from this memory ((Byte/Second))
system.mem_ctrl.dram.bwTotal::writebacks         3408                       # Total bandwidth to/from this memory ((Byte/Second))
system.mem_ctrl.dram.bwTotal::cpu.inst         813368                       # Total bandwidth to/from this memory ((Byte/Second))
system.mem_ctrl.dram.bwTotal::cpu.data        1078622                       # Total bandwidth to/from this memory ((Byte/Second))
system.mem_ctrl.dram.bwTotal::total           1895398                       # Total bandwidth to/from this memory ((Byte/Second))
system.mem_ctrl.dram.readBursts                  3331                       # Number of DRAM read bursts (Count)
system.mem_ctrl.dram.writeBursts                    0                       # Number of DRAM write bursts (Count)
system.mem_ctrl.dram.perBankRdBursts::0           180                       # Per bank write bursts (Count)
system.mem_ctrl.dram.perBankRdBursts::1           260                       # Per bank write bursts (Count)
system.mem_ctrl.dram.perBankRdBursts::2           229                       # Per bank write bursts (Count)
system.mem_ctrl.dram.perBankRdBursts::3           208                       # Per bank write bursts (Count)
system.mem_ctrl.dram.perBankRdBursts::4           169                       # Per bank write bursts (Count)
system.mem_ctrl.dram.perBankRdBursts::5           133                       # Per bank write bursts (Count)
system.mem_ctrl.dram.perBankRdBursts::6           183                       # Per bank write bursts (Count)
system.mem_ctrl.dram.perBankRdBursts::7           263                       # Per bank write bursts (Count)
system.mem_ctrl.dram.perBankRdBursts::8           188                       # Per bank write bursts (Count)
system.mem_ctrl.dram.perBankRdBursts::9           237                       # Per bank write bursts (Count)
system.mem_ctrl.dram.perBankRdBursts::10          116                       # Per bank write bursts (Count)
system.mem_ctrl.dram.perBankRdBursts::11          181                       # Per bank write bursts (Count)
system.mem_ctrl.dram.perBankRdBursts::12          185                       # Per bank write bursts (Count)
system.mem_ctrl.dram.perBankRdBursts::13          207                       # Per bank write bursts (Count)
system.mem_ctrl.dram.perBankRdBursts::14          288                       # Per bank write bursts (Count)
system.mem_ctrl.dram.perBankRdBursts::15          304                       # Per bank write bursts (Count)
system.mem_ctrl.dram.perBankWrBursts::0             0                       # Per bank write bursts (Count)
system.mem_ctrl.dram.perBankWrBursts::1             0                       # Per bank write bursts (Count)
system.mem_ctrl.dram.perBankWrBursts::2             0                       # Per bank write bursts (Count)
system.mem_ctrl.dram.perBankWrBursts::3             0                       # Per bank write bursts (Count)
system.mem_ctrl.dram.perBankWrBursts::4             0                       # Per bank write bursts (Count)
system.mem_ctrl.dram.perBankWrBursts::5             0                       # Per bank write bursts (Count)
system.mem_ctrl.dram.perBankWrBursts::6             0                       # Per bank write bursts (Count)
system.mem_ctrl.dram.perBankWrBursts::7             0                       # Per bank write bursts (Count)
system.mem_ctrl.dram.perBankWrBursts::8             0                       # Per bank write bursts (Count)
system.mem_ctrl.dram.perBankWrBursts::9             0                       # Per bank write bursts (Count)
system.mem_ctrl.dram.perBankWrBursts::10            0                       # Per bank write bursts (Count)
system.mem_ctrl.dram.perBankWrBursts::11            0                       # Per bank write bursts (Count)
system.mem_ctrl.dram.perBankWrBursts::12            0                       # Per bank write bursts (Count)
system.mem_ctrl.dram.perBankWrBursts::13            0                       # Per bank write bursts (Count)
system.mem_ctrl.dram.perBankWrBursts::14            0                       # Per bank write bursts (Count)
system.mem_ctrl.dram.perBankWrBursts::15            0                       # Per bank write bursts (Count)
system.mem_ctrl.dram.totQLat                 26493250                       # Total ticks spent queuing (Tick)
system.mem_ctrl.dram.totBusLat               16655000                       # Total ticks spent in databus transfers (Tick)
system.mem_ctrl.dram.totMemAccLat            88949500                       # Total ticks spent from burst creation until serviced by the DRAM (Tick)
system.mem_ctrl.dram.avgQLat                  7953.54                       # Average queueing delay per DRAM burst ((Tick/Count))
system.mem_ctrl.dram.avgBusLat                5000.00                       # Average bus latency per DRAM burst ((Tick/Count))
system.mem_ctrl.dram.avgMemAccLat            26703.54                       # Average memory access latency per DRAM burst ((Tick/Count))
system.mem_ctrl.dram.readRowHits                 2690                       # Number of row buffer hits during reads (Count)
system.mem_ctrl.dram.writeRowHits                   0                       # Number of row buffer hits during writes (Count)
system.mem_ctrl.dram.readRowHitRate             80.76                       # Row buffer hit rate for reads (Ratio)
system.mem_ctrl.dram.writeRowHitRate              nan                       # Row buffer hit rate for writes (Ratio)
system.mem_ctrl.dram.bytesPerActivate::samples          635                       # Bytes accessed per row activation (Byte)
system.mem_ctrl.dram.bytesPerActivate::mean   334.009449                       # Bytes accessed per row activation (Byte)
system.mem_ctrl.dram.bytesPerActivate::gmean   203.788886                       # Bytes accessed per row activation (Byte)
system.mem_ctrl.dram.bytesPerActivate::stdev   331.235666                       # Bytes accessed per row activation (Byte)
system.mem_ctrl.dram.bytesPerActivate::0-127          196     30.87%     30.87% # Bytes accessed per row activation (Byte)
system.mem_ctrl.dram.bytesPerActivate::128-255          171     26.93%     57.80% # Bytes accessed per row activation (Byte)
system.mem_ctrl.dram.bytesPerActivate::256-383           65     10.24%     68.03% # Bytes accessed per row activation (Byte)
system.mem_ctrl.dram.bytesPerActivate::384-511           44      6.93%     74.96% # Bytes accessed per row activation (Byte)
system.mem_ctrl.dram.bytesPerActivate::512-639           29      4.57%     79.53% # Bytes accessed per row activation (Byte)
system.mem_ctrl.dram.bytesPerActivate::640-767           26      4.09%     83.62% # Bytes accessed per row activation (Byte)
system.mem_ctrl.dram.bytesPerActivate::768-895           15      2.36%     85.98% # Bytes accessed per row activation (Byte)
system.mem_ctrl.dram.bytesPerActivate::896-1023            7      1.10%     87.09% # Bytes accessed per row activation (Byte)
system.mem_ctrl.dram.bytesPerActivate::1024-1151           82     12.91%    100.00% # Bytes accessed per row activation (Byte)
system.mem_ctrl.dram.bytesPerActivate::total          635                       # Bytes accessed per row activation (Byte)
system.mem_ctrl.dram.bytesRead                 213184                       # Total bytes read (Byte)
system.mem_ctrl.dram.bytesWritten                   0                       # Total bytes written (Byte)
system.mem_ctrl.dram.avgRdBW                 1.891990                       # Average DRAM read bandwidth in MiBytes/s ((Byte/Second))
system.mem_ctrl.dram.avgWrBW                        0                       # Average DRAM write bandwidth in MiBytes/s ((Byte/Second))
system.mem_ctrl.dram.peakBW                  12800.00                       # Theoretical peak bandwidth in MiByte/s ((Byte/Second))
system.mem_ctrl.dram.busUtil                     0.01                       # Data bus utilization in percentage (Ratio)
system.mem_ctrl.dram.busUtilRead                 0.01                       # Data bus utilization in percentage for reads (Ratio)
system.mem_ctrl.dram.busUtilWrite                0.00                       # Data bus utilization in percentage for writes (Ratio)
system.mem_ctrl.dram.pageHitRate                80.76                       # Row buffer hit rate, read and write combined (Ratio)
system.mem_ctrl.dram.power_state.pwrStateResidencyTicks::UNDEFINED 112677149000                       # Cumulative time (in ticks) in various power states (Tick)
system.mem_ctrl.dram.rank0.actEnergy          2648940                       # Energy for activate commands per rank (pJ) (Joule)
system.mem_ctrl.dram.rank0.preEnergy          1400355                       # Energy for precharge commands per rank (pJ) (Joule)
system.mem_ctrl.dram.rank0.readEnergy        11602500                       # Energy for read commands per rank (pJ) (Joule)
system.mem_ctrl.dram.rank0.writeEnergy              0                       # Energy for write commands per rank (pJ) (Joule)
system.mem_ctrl.dram.rank0.refreshEnergy 8894455440.000002                       # Energy for refresh commands per rank (pJ) (Joule)
system.mem_ctrl.dram.rank0.actBackEnergy   1710261060                       # Energy for active background per rank (pJ) (Joule)
system.mem_ctrl.dram.rank0.preBackEnergy  41827805760                       # Energy for precharge background per rank (pJ) (Joule)
system.mem_ctrl.dram.rank0.actPowerDownEnergy            0                       # Energy for active power-down per rank (pJ) (Joule)
system.mem_ctrl.dram.rank0.prePowerDownEnergy            0                       # Energy for precharge power-down per rank (pJ) (Joule)
system.mem_ctrl.dram.rank0.selfRefreshEnergy            0                       # Energy for self refresh per rank (pJ) (Joule)
system.mem_ctrl.dram.rank0.totalEnergy    52448174055                       # Total energy per rank (pJ) (Joule)
system.mem_ctrl.dram.rank0.averagePower    465.473031                       # Core power per rank (mW) (Watt)
system.mem_ctrl.dram.rank0.totalIdleTime            0                       # Total Idle time Per DRAM Rank (Tick)
system.mem_ctrl.dram.rank0.pwrStateTime::IDLE 108727113000                       # Time in different power states (Tick)
system.mem_ctrl.dram.rank0.pwrStateTime::REF   3762460000                       # Time in different power states (Tick)
system.mem_ctrl.dram.rank0.pwrStateTime::SREF            0                       # Time in different power states (Tick)
system.mem_ctrl.dram.rank0.pwrStateTime::PRE_PDN            0                       # Time in different power states (Tick)
system.mem_ctrl.dram.rank0.pwrStateTime::ACT    187576000                       # Time in different power states (Tick)
system.mem_ctrl.dram.rank0.pwrStateTime::ACT_PDN            0                       # Time in different power states (Tick)
system.mem_ctrl.dram.rank1.actEnergy          1927800                       # Energy for activate commands per rank (pJ) (Joule)
system.mem_ctrl.dram.rank1.preEnergy          1009470                       # Energy for precharge commands per rank (pJ) (Joule)
system.mem_ctrl.dram.rank1.readEnergy        12180840                       # Energy for read commands per rank (pJ) (Joule)
system.mem_ctrl.dram.rank1.writeEnergy              0                       # Energy for write commands per rank (pJ) (Joule)
system.mem_ctrl.dram.rank1.refreshEnergy 8894455440.000002                       # Energy for refresh commands per rank (pJ) (Joule)
system.mem_ctrl.dram.rank1.actBackEnergy   1707405360                       # Energy for active background per rank (pJ) (Joule)
system.mem_ctrl.dram.rank1.preBackEnergy  41830210560                       # Energy for precharge background per rank (pJ) (Joule)
system.mem_ctrl.dram.rank1.actPowerDownEnergy            0                       # Energy for active power-down per rank (pJ) (Joule)
system.mem_ctrl.dram.rank1.prePowerDownEnergy            0                       # Energy for precharge power-down per rank (pJ) (Joule)
system.mem_ctrl.dram.rank1.selfRefreshEnergy            0                       # Energy for self refresh per rank (pJ) (Joule)
system.mem_ctrl.dram.rank1.totalEnergy    52447189470                       # Total energy per rank (pJ) (Joule)
system.mem_ctrl.dram.rank1.averagePower    465.464293                       # Core power per rank (mW) (Watt)
system.mem_ctrl.dram.rank1.totalIdleTime            0                       # Total Idle time Per DRAM Rank (Tick)
system.mem_ctrl.dram.rank1.pwrStateTime::IDLE 108733471500                       # Time in different power states (Tick)
system.mem_ctrl.dram.rank1.pwrStateTime::REF   3762460000                       # Time in different power states (Tick)
system.mem_ctrl.dram.rank1.pwrStateTime::SREF            0                       # Time in different power states (Tick)
system.mem_ctrl.dram.rank1.pwrStateTime::PRE_PDN            0                       # Time in different power states (Tick)
system.mem_ctrl.dram.rank1.pwrStateTime::ACT    181217500                       # Time in different power states (Tick)
system.mem_ctrl.dram.rank1.pwrStateTime::ACT_PDN            0                       # Time in different power states (Tick)
system.mem_ctrl.power_state.pwrStateResidencyTicks::UNDEFINED 112677149000                       # Cumulative time (in ticks) in various power states (Tick)
system.membus.transDist::ReadResp                2735                       # Transaction distribution (Count)
system.membus.transDist::WritebackDirty             6                       # Transaction distribution (Count)
system.membus.transDist::CleanEvict                99                       # Transaction distribution (Count)
system.membus.transDist::ReadExReq                596                       # Transaction distribution (Count)
system.membus.transDist::ReadExResp               596                       # Transaction distribution (Count)
system.membus.transDist::ReadSharedReq           2735                       # Transaction distribution (Count)
system.membus.pktCount_system.l2cache.mem_side_port::system.mem_ctrl.port         6767                       # Packet count per connected requestor and responder (Count)
system.membus.pktCount_system.l2cache.mem_side_port::total         6767                       # Packet count per connected requestor and responder (Count)
system.membus.pktCount::total                    6767                       # Packet count per connected requestor and responder (Count)
system.membus.pktSize_system.l2cache.mem_side_port::system.mem_ctrl.port       213568                       # Cumulative packet size per connected requestor and responder (Byte)
system.membus.pktSize_system.l2cache.mem_side_port::total       213568                       # Cumulative packet size per connected requestor and responder (Byte)
system.membus.pktSize::total                   213568                       # Cumulative packet size per connected requestor and responder (Byte)
system.membus.snoops                                0                       # Total snoops (Count)
system.membus.snoopTraffic                          0                       # Total snoop traffic (Byte)
system.membus.snoopFanout::samples               3331                       # Request fanout histogram (Count)
system.membus.snoopFanout::mean                     0                       # Request fanout histogram (Count)
system.membus.snoopFanout::stdev                    0                       # Request fanout histogram (Count)
system.membus.snoopFanout::underflows               0      0.00%      0.00% # Request fanout histogram (Count)
system.membus.snoopFanout::0                     3331    100.00%    100.00% # Request fanout histogram (Count)
system.membus.snoopFanout::1                        0      0.00%    100.00% # Request fanout histogram (Count)
system.membus.snoopFanout::overflows                0      0.00%    100.00% # Request fanout histogram (Count)
system.membus.snoopFanout::min_value                0                       # Request fanout histogram (Count)
system.membus.snoopFanout::max_value                0                       # Request fanout histogram (Count)
system.membus.snoopFanout::total                 3331                       # Request fanout histogram (Count)
system.membus.power_state.pwrStateResidencyTicks::UNDEFINED 112677149000                       # Cumulative time (in ticks) in various power states (Tick)
system.membus.reqLayer2.occupancy             1730000                       # Layer occupancy (ticks) (Tick)
system.membus.reqLayer2.utilization               0.0                       # Layer utilization (Ratio)
system.membus.respLayer0.occupancy            9060500                       # Layer occupancy (ticks) (Tick)
system.membus.respLayer0.utilization              0.0                       # Layer utilization (Ratio)
system.membus.snoop_filter.totRequests           3436                       # Total number of requests made to the snoop filter. (Count)
system.membus.snoop_filter.hitSingleRequests          105                       # Number of requests hitting in the snoop filter with a single holder of the requested data. (Count)
system.membus.snoop_filter.hitMultiRequests            0                       # Number of requests hitting in the snoop filter with multiple (>1) holders of the requested data. (Count)
system.membus.snoop_filter.totSnoops                0                       # Total number of snoops made to the snoop filter. (Count)
system.membus.snoop_filter.hitSingleSnoops            0                       # Number of snoops hitting in the snoop filter with a single holder of the requested data. (Count)
system.membus.snoop_filter.hitMultiSnoops            0                       # Number of snoops hitting in the snoop filter with multiple (>1) holders of the requested data. (Count)
system.workload.inst.arm                            0                       # number of arm instructions executed (Count)
system.workload.inst.quiesce                        0                       # number of quiesce instructions executed (Count)

---------- End Simulation Statistics   ----------
