
---------- Begin Simulation Statistics ----------
simSeconds                                   0.310713                       # Number of seconds simulated (Second)
simTicks                                 310712720000                       # Number of ticks simulated (Tick)
finalTick                                310712720000                       # Number of ticks from beginning of simulation (restored from checkpoints and never reset) (Tick)
simFreq                                  1000000000000                       # The number of ticks per simulated second ((Tick/Second))
hostSeconds                                   5116.46                       # Real time elapsed on the host (Second)
hostTickRate                                 60728097                       # The number of ticks simulated per host second (ticks/s) ((Tick/Second))
hostMemory                                    1232460                       # Number of bytes of host memory used (Byte)
simInsts                                    419442540                       # Number of instructions simulated (Count)
simOps                                      829695577                       # Number of ops (including micro ops) simulated (Count)
hostInstRate                                    81979                       # Simulator instruction rate (inst/s) ((Count/Second))
hostOpRate                                     162162                       # Simulator op (including micro ops) rate (op/s) ((Count/Second))
system.clk_domain.clock                           500                       # Clock period in ticks (Tick)
system.clk_domain.voltage_domain.voltage            1                       # Voltage in Volts (Volt)
system.cpu.numCycles                        621425441                       # Number of cpu cycles simulated (Cycle)
system.cpu.numWorkItemsStarted                      0                       # Number of work items this cpu started (Count)
system.cpu.numWorkItemsCompleted                    0                       # Number of work items this cpu completed (Count)
system.cpu.instsAdded                      1376040613                       # Number of instructions added to the IQ (excludes non-spec) (Count)
system.cpu.nonSpecInstsAdded                 48786395                       # Number of non-speculative instructions added to the IQ (Count)
system.cpu.instsIssued                     1165518089                       # Number of instructions issued (Count)
system.cpu.squashedInstsIssued                1525434                       # Number of squashed instructions issued (Count)
system.cpu.squashedInstsExamined            595131425                       # Number of squashed instructions iterated over during squash; mainly for profiling (Count)
system.cpu.squashedOperandsExamined        1133161145                       # Number of squashed operands that are examined and possibly removed from graph (Count)
system.cpu.squashedNonSpecRemoved            23055899                       # Number of squashed non-spec instructions that were removed (Count)
system.cpu.numIssuedDist::samples           621314162                       # Number of insts issued each cycle (Count)
system.cpu.numIssuedDist::mean               1.875892                       # Number of insts issued each cycle (Count)
system.cpu.numIssuedDist::stdev              2.065839                       # Number of insts issued each cycle (Count)
system.cpu.numIssuedDist::underflows                0      0.00%      0.00% # Number of insts issued each cycle (Count)
system.cpu.numIssuedDist::0                 242283482     39.00%     39.00% # Number of insts issued each cycle (Count)
system.cpu.numIssuedDist::1                  95733192     15.41%     54.40% # Number of insts issued each cycle (Count)
system.cpu.numIssuedDist::2                  74491725     11.99%     66.39% # Number of insts issued each cycle (Count)
system.cpu.numIssuedDist::3                  64453984     10.37%     76.77% # Number of insts issued each cycle (Count)
system.cpu.numIssuedDist::4                  66480240     10.70%     87.47% # Number of insts issued each cycle (Count)
system.cpu.numIssuedDist::5                  29128988      4.69%     92.15% # Number of insts issued each cycle (Count)
system.cpu.numIssuedDist::6                  31872971      5.13%     97.28% # Number of insts issued each cycle (Count)
system.cpu.numIssuedDist::7                  10320871      1.66%     98.95% # Number of insts issued each cycle (Count)
system.cpu.numIssuedDist::8                   6548709      1.05%    100.00% # Number of insts issued each cycle (Count)
system.cpu.numIssuedDist::overflows                 0      0.00%    100.00% # Number of insts issued each cycle (Count)
system.cpu.numIssuedDist::min_value                 0                       # Number of insts issued each cycle (Count)
system.cpu.numIssuedDist::max_value                 8                       # Number of insts issued each cycle (Count)
system.cpu.numIssuedDist::total             621314162                       # Number of insts issued each cycle (Count)
system.cpu.statFuBusy::No_OpClass                   0      0.00%      0.00% # attempts to use FU when none available (Count)
system.cpu.statFuBusy::IntAlu                14944563     52.99%     52.99% # attempts to use FU when none available (Count)
system.cpu.statFuBusy::IntMult                      0      0.00%     52.99% # attempts to use FU when none available (Count)
system.cpu.statFuBusy::IntDiv                       0      0.00%     52.99% # attempts to use FU when none available (Count)
system.cpu.statFuBusy::FloatAdd                     0      0.00%     52.99% # attempts to use FU when none available (Count)
system.cpu.statFuBusy::FloatCmp                     0      0.00%     52.99% # attempts to use FU when none available (Count)
system.cpu.statFuBusy::FloatCvt                     0      0.00%     52.99% # attempts to use FU when none available (Count)
system.cpu.statFuBusy::FloatMult                    0      0.00%     52.99% # attempts to use FU when none available (Count)
system.cpu.statFuBusy::FloatMultAcc                 0      0.00%     52.99% # attempts to use FU when none available (Count)
system.cpu.statFuBusy::FloatDiv                     0      0.00%     52.99% # attempts to use FU when none available (Count)
system.cpu.statFuBusy::FloatMisc                    0      0.00%     52.99% # attempts to use FU when none available (Count)
system.cpu.statFuBusy::FloatSqrt                    0      0.00%     52.99% # attempts to use FU when none available (Count)
system.cpu.statFuBusy::SimdAdd                      0      0.00%     52.99% # attempts to use FU when none available (Count)
system.cpu.statFuBusy::SimdAddAcc                   0      0.00%     52.99% # attempts to use FU when none available (Count)
system.cpu.statFuBusy::SimdAlu                     19      0.00%     52.99% # attempts to use FU when none available (Count)
system.cpu.statFuBusy::SimdCmp                      0      0.00%     52.99% # attempts to use FU when none available (Count)
system.cpu.statFuBusy::SimdCvt                     13      0.00%     52.99% # attempts to use FU when none available (Count)
system.cpu.statFuBusy::SimdMisc                     1      0.00%     52.99% # attempts to use FU when none available (Count)
system.cpu.statFuBusy::SimdMult                     0      0.00%     52.99% # attempts to use FU when none available (Count)
system.cpu.statFuBusy::SimdMultAcc                  0      0.00%     52.99% # attempts to use FU when none available (Count)
system.cpu.statFuBusy::SimdShift                    2      0.00%     52.99% # attempts to use FU when none available (Count)
system.cpu.statFuBusy::SimdShiftAcc                 0      0.00%     52.99% # attempts to use FU when none available (Count)
system.cpu.statFuBusy::SimdDiv                      0      0.00%     52.99% # attempts to use FU when none available (Count)
system.cpu.statFuBusy::SimdSqrt                     0      0.00%     52.99% # attempts to use FU when none available (Count)
system.cpu.statFuBusy::SimdFloatAdd                 0      0.00%     52.99% # attempts to use FU when none available (Count)
system.cpu.statFuBusy::SimdFloatAlu                 0      0.00%     52.99% # attempts to use FU when none available (Count)
system.cpu.statFuBusy::SimdFloatCmp                 0      0.00%     52.99% # attempts to use FU when none available (Count)
system.cpu.statFuBusy::SimdFloatCvt                 0      0.00%     52.99% # attempts to use FU when none available (Count)
system.cpu.statFuBusy::SimdFloatDiv                 0      0.00%     52.99% # attempts to use FU when none available (Count)
system.cpu.statFuBusy::SimdFloatMisc                0      0.00%     52.99% # attempts to use FU when none available (Count)
system.cpu.statFuBusy::SimdFloatMult                0      0.00%     52.99% # attempts to use FU when none available (Count)
system.cpu.statFuBusy::SimdFloatMultAcc             0      0.00%     52.99% # attempts to use FU when none available (Count)
system.cpu.statFuBusy::SimdFloatSqrt                0      0.00%     52.99% # attempts to use FU when none available (Count)
system.cpu.statFuBusy::SimdReduceAdd                0      0.00%     52.99% # attempts to use FU when none available (Count)
system.cpu.statFuBusy::SimdReduceAlu                0      0.00%     52.99% # attempts to use FU when none available (Count)
system.cpu.statFuBusy::SimdReduceCmp                0      0.00%     52.99% # attempts to use FU when none available (Count)
system.cpu.statFuBusy::SimdFloatReduceAdd            0      0.00%     52.99% # attempts to use FU when none available (Count)
system.cpu.statFuBusy::SimdFloatReduceCmp            0      0.00%     52.99% # attempts to use FU when none available (Count)
system.cpu.statFuBusy::SimdAes                      0      0.00%     52.99% # attempts to use FU when none available (Count)
system.cpu.statFuBusy::SimdAesMix                   0      0.00%     52.99% # attempts to use FU when none available (Count)
system.cpu.statFuBusy::SimdSha1Hash                 0      0.00%     52.99% # attempts to use FU when none available (Count)
system.cpu.statFuBusy::SimdSha1Hash2                0      0.00%     52.99% # attempts to use FU when none available (Count)
system.cpu.statFuBusy::SimdSha256Hash               0      0.00%     52.99% # attempts to use FU when none available (Count)
system.cpu.statFuBusy::SimdSha256Hash2              0      0.00%     52.99% # attempts to use FU when none available (Count)
system.cpu.statFuBusy::SimdShaSigma2                0      0.00%     52.99% # attempts to use FU when none available (Count)
system.cpu.statFuBusy::SimdShaSigma3                0      0.00%     52.99% # attempts to use FU when none available (Count)
system.cpu.statFuBusy::SimdPredAlu                  0      0.00%     52.99% # attempts to use FU when none available (Count)
system.cpu.statFuBusy::MemRead                8673202     30.75%     83.74% # attempts to use FU when none available (Count)
system.cpu.statFuBusy::MemWrite               4586554     16.26%    100.00% # attempts to use FU when none available (Count)
system.cpu.statFuBusy::FloatMemRead                36      0.00%    100.00% # attempts to use FU when none available (Count)
system.cpu.statFuBusy::FloatMemWrite              182      0.00%    100.00% # attempts to use FU when none available (Count)
system.cpu.statFuBusy::IprAccess                    0      0.00%    100.00% # attempts to use FU when none available (Count)
system.cpu.statFuBusy::InstPrefetch                 0      0.00%    100.00% # attempts to use FU when none available (Count)
system.cpu.statIssuedInstType_0::No_OpClass     19926314      1.71%      1.71% # Number of instructions issued per FU type, per thread (Count)
system.cpu.statIssuedInstType_0::IntAlu     896749776     76.94%     78.65% # Number of instructions issued per FU type, per thread (Count)
system.cpu.statIssuedInstType_0::IntMult        59944      0.01%     78.65% # Number of instructions issued per FU type, per thread (Count)
system.cpu.statIssuedInstType_0::IntDiv          1590      0.00%     78.65% # Number of instructions issued per FU type, per thread (Count)
system.cpu.statIssuedInstType_0::FloatAdd        43522      0.00%     78.66% # Number of instructions issued per FU type, per thread (Count)
system.cpu.statIssuedInstType_0::FloatCmp            0      0.00%     78.66% # Number of instructions issued per FU type, per thread (Count)
system.cpu.statIssuedInstType_0::FloatCvt           32      0.00%     78.66% # Number of instructions issued per FU type, per thread (Count)
system.cpu.statIssuedInstType_0::FloatMult            0      0.00%     78.66% # Number of instructions issued per FU type, per thread (Count)
system.cpu.statIssuedInstType_0::FloatMultAcc            0      0.00%     78.66% # Number of instructions issued per FU type, per thread (Count)
system.cpu.statIssuedInstType_0::FloatDiv            0      0.00%     78.66% # Number of instructions issued per FU type, per thread (Count)
system.cpu.statIssuedInstType_0::FloatMisc            0      0.00%     78.66% # Number of instructions issued per FU type, per thread (Count)
system.cpu.statIssuedInstType_0::FloatSqrt            0      0.00%     78.66% # Number of instructions issued per FU type, per thread (Count)
system.cpu.statIssuedInstType_0::SimdAdd          531      0.00%     78.66% # Number of instructions issued per FU type, per thread (Count)
system.cpu.statIssuedInstType_0::SimdAddAcc            0      0.00%     78.66% # Number of instructions issued per FU type, per thread (Count)
system.cpu.statIssuedInstType_0::SimdAlu       115444      0.01%     78.67% # Number of instructions issued per FU type, per thread (Count)
system.cpu.statIssuedInstType_0::SimdCmp            0      0.00%     78.67% # Number of instructions issued per FU type, per thread (Count)
system.cpu.statIssuedInstType_0::SimdCvt       115066      0.01%     78.68% # Number of instructions issued per FU type, per thread (Count)
system.cpu.statIssuedInstType_0::SimdMisc       271156      0.02%     78.70% # Number of instructions issued per FU type, per thread (Count)
system.cpu.statIssuedInstType_0::SimdMult            0      0.00%     78.70% # Number of instructions issued per FU type, per thread (Count)
system.cpu.statIssuedInstType_0::SimdMultAcc            0      0.00%     78.70% # Number of instructions issued per FU type, per thread (Count)
system.cpu.statIssuedInstType_0::SimdShift          584      0.00%     78.70% # Number of instructions issued per FU type, per thread (Count)
system.cpu.statIssuedInstType_0::SimdShiftAcc            0      0.00%     78.70% # Number of instructions issued per FU type, per thread (Count)
system.cpu.statIssuedInstType_0::SimdDiv            0      0.00%     78.70% # Number of instructions issued per FU type, per thread (Count)
system.cpu.statIssuedInstType_0::SimdSqrt            0      0.00%     78.70% # Number of instructions issued per FU type, per thread (Count)
system.cpu.statIssuedInstType_0::SimdFloatAdd            0      0.00%     78.70% # Number of instructions issued per FU type, per thread (Count)
system.cpu.statIssuedInstType_0::SimdFloatAlu            0      0.00%     78.70% # Number of instructions issued per FU type, per thread (Count)
system.cpu.statIssuedInstType_0::SimdFloatCmp            0      0.00%     78.70% # Number of instructions issued per FU type, per thread (Count)
system.cpu.statIssuedInstType_0::SimdFloatCvt            0      0.00%     78.70% # Number of instructions issued per FU type, per thread (Count)
system.cpu.statIssuedInstType_0::SimdFloatDiv            0      0.00%     78.70% # Number of instructions issued per FU type, per thread (Count)
system.cpu.statIssuedInstType_0::SimdFloatMisc            0      0.00%     78.70% # Number of instructions issued per FU type, per thread (Count)
system.cpu.statIssuedInstType_0::SimdFloatMult            0      0.00%     78.70% # Number of instructions issued per FU type, per thread (Count)
system.cpu.statIssuedInstType_0::SimdFloatMultAcc            0      0.00%     78.70% # Number of instructions issued per FU type, per thread (Count)
system.cpu.statIssuedInstType_0::SimdFloatSqrt            0      0.00%     78.70% # Number of instructions issued per FU type, per thread (Count)
system.cpu.statIssuedInstType_0::SimdReduceAdd            0      0.00%     78.70% # Number of instructions issued per FU type, per thread (Count)
system.cpu.statIssuedInstType_0::SimdReduceAlu            0      0.00%     78.70% # Number of instructions issued per FU type, per thread (Count)
system.cpu.statIssuedInstType_0::SimdReduceCmp            0      0.00%     78.70% # Number of instructions issued per FU type, per thread (Count)
system.cpu.statIssuedInstType_0::SimdFloatReduceAdd            0      0.00%     78.70% # Number of instructions issued per FU type, per thread (Count)
system.cpu.statIssuedInstType_0::SimdFloatReduceCmp            0      0.00%     78.70% # Number of instructions issued per FU type, per thread (Count)
system.cpu.statIssuedInstType_0::SimdAes            0      0.00%     78.70% # Number of instructions issued per FU type, per thread (Count)
system.cpu.statIssuedInstType_0::SimdAesMix            0      0.00%     78.70% # Number of instructions issued per FU type, per thread (Count)
system.cpu.statIssuedInstType_0::SimdSha1Hash            0      0.00%     78.70% # Number of instructions issued per FU type, per thread (Count)
system.cpu.statIssuedInstType_0::SimdSha1Hash2            0      0.00%     78.70% # Number of instructions issued per FU type, per thread (Count)
system.cpu.statIssuedInstType_0::SimdSha256Hash            0      0.00%     78.70% # Number of instructions issued per FU type, per thread (Count)
system.cpu.statIssuedInstType_0::SimdSha256Hash2            0      0.00%     78.70% # Number of instructions issued per FU type, per thread (Count)
system.cpu.statIssuedInstType_0::SimdShaSigma2            0      0.00%     78.70% # Number of instructions issued per FU type, per thread (Count)
system.cpu.statIssuedInstType_0::SimdShaSigma3            0      0.00%     78.70% # Number of instructions issued per FU type, per thread (Count)
system.cpu.statIssuedInstType_0::SimdPredAlu            0      0.00%     78.70% # Number of instructions issued per FU type, per thread (Count)
system.cpu.statIssuedInstType_0::MemRead    162799735     13.97%     92.67% # Number of instructions issued per FU type, per thread (Count)
system.cpu.statIssuedInstType_0::MemWrite     85230755      7.31%     99.98% # Number of instructions issued per FU type, per thread (Count)
system.cpu.statIssuedInstType_0::FloatMemRead        87994      0.01%     99.99% # Number of instructions issued per FU type, per thread (Count)
system.cpu.statIssuedInstType_0::FloatMemWrite       115646      0.01%    100.00% # Number of instructions issued per FU type, per thread (Count)
system.cpu.statIssuedInstType_0::IprAccess            0      0.00%    100.00% # Number of instructions issued per FU type, per thread (Count)
system.cpu.statIssuedInstType_0::InstPrefetch            0      0.00%    100.00% # Number of instructions issued per FU type, per thread (Count)
system.cpu.statIssuedInstType_0::total     1165518089                       # Number of instructions issued per FU type, per thread (Count)
system.cpu.issueRate                         1.875556                       # Inst issue rate ((Count/Cycle))
system.cpu.fuBusy                            28204572                       # FU busy when requested (Count)
system.cpu.fuBusyRate                        0.024199                       # FU busy rate (busy events/executed inst) ((Count/Count))
system.cpu.intInstQueueReads               2980380116                       # Number of integer instruction queue reads (Count)
system.cpu.intInstQueueWrites              2023358396                       # Number of integer instruction queue writes (Count)
system.cpu.intInstQueueWakeupAccesses      1136953204                       # Number of integer instruction queue wakeup accesses (Count)
system.cpu.fpInstQueueReads                   1700230                       # Number of floating instruction queue reads (Count)
system.cpu.fpInstQueueWrites                   862635                       # Number of floating instruction queue writes (Count)
system.cpu.fpInstQueueWakeupAccesses           848664                       # Number of floating instruction queue wakeup accesses (Count)
system.cpu.vecInstQueueReads                        0                       # Number of vector instruction queue reads (Count)
system.cpu.vecInstQueueWrites                       0                       # Number of vector instruction queue writes (Count)
system.cpu.vecInstQueueWakeupAccesses               0                       # Number of vector instruction queue wakeup accesses (Count)
system.cpu.intAluAccesses                  1172946229                       # Number of integer alu accesses (Count)
system.cpu.fpAluAccesses                       850118                       # Number of floating point alu accesses (Count)
system.cpu.vecAluAccesses                           0                       # Number of vector alu accesses (Count)
system.cpu.numInsts                        1145753130                       # Number of executed instructions (Count)
system.cpu.numLoadInsts                     159634581                       # Number of load instructions executed (Count)
system.cpu.numSquashedInsts                  19764959                       # Number of squashed instructions skipped in execute (Count)
system.cpu.numSwp                                   0                       # Number of swp insts executed (Count)
system.cpu.numNop                                   0                       # Number of nop insts executed (Count)
system.cpu.numRefs                          239336005                       # Number of memory reference insts executed (Count)
system.cpu.numBranches                       89862276                       # Number of branches executed (Count)
system.cpu.numStoreInsts                     79701424                       # Number of stores executed (Count)
system.cpu.numRate                           1.843750                       # Inst execution rate ((Count/Cycle))
system.cpu.timesIdled                           11076                       # Number of times that the entire CPU went into an idle state and unscheduled itself (Count)
system.cpu.idleCycles                          111279                       # Total number of cycles that the CPU has spent unscheduled due to idling (Cycle)
system.cpu.committedInsts                   419442540                       # Number of Instructions Simulated (Count)
system.cpu.committedOps                     829695577                       # Number of Ops (including micro ops) Simulated (Count)
system.cpu.cpi                               1.481551                       # CPI: Cycles Per Instruction ((Cycle/Count))
system.cpu.totalCpi                          1.481551                       # CPI: Total CPI of All Threads ((Cycle/Count))
system.cpu.ipc                               0.674968                       # IPC: Instructions Per Cycle ((Count/Cycle))
system.cpu.totalIpc                          0.674968                       # IPC: Total IPC of All Threads ((Count/Cycle))
system.cpu.intRegfileReads                 1136880970                       # Number of integer regfile reads (Count)
system.cpu.intRegfileWrites                 868269732                       # Number of integer regfile writes (Count)
system.cpu.fpRegfileReads                     1392656                       # Number of floating regfile reads (Count)
system.cpu.fpRegfileWrites                     675817                       # Number of floating regfile writes (Count)
system.cpu.ccRegfileReads                   395550352                       # number of cc regfile reads (Count)
system.cpu.ccRegfileWrites                  322561892                       # number of cc regfile writes (Count)
system.cpu.miscRegfileReads                 491508957                       # number of misc regfile reads (Count)
system.cpu.miscRegfileWrites                       18                       # number of misc regfile writes (Count)
system.cpu.MemDepUnit__0.insertedLoads      236011476                       # Number of loads inserted to the mem dependence unit. (Count)
system.cpu.MemDepUnit__0.insertedStores     120288041                       # Number of stores inserted to the mem dependence unit. (Count)
system.cpu.MemDepUnit__0.conflictingLoads    154409624                       # Number of conflicting loads. (Count)
system.cpu.MemDepUnit__0.conflictingStores     86411578                       # Number of conflicting stores. (Count)
system.cpu.MemDepUnit__1.insertedLoads              0                       # Number of loads inserted to the mem dependence unit. (Count)
system.cpu.MemDepUnit__1.insertedStores             0                       # Number of stores inserted to the mem dependence unit. (Count)
system.cpu.MemDepUnit__1.conflictingLoads            0                       # Number of conflicting loads. (Count)
system.cpu.MemDepUnit__1.conflictingStores            0                       # Number of conflicting stores. (Count)
system.cpu.MemDepUnit__2.insertedLoads              0                       # Number of loads inserted to the mem dependence unit. (Count)
system.cpu.MemDepUnit__2.insertedStores             0                       # Number of stores inserted to the mem dependence unit. (Count)
system.cpu.MemDepUnit__2.conflictingLoads            0                       # Number of conflicting loads. (Count)
system.cpu.MemDepUnit__2.conflictingStores            0                       # Number of conflicting stores. (Count)
system.cpu.MemDepUnit__3.insertedLoads              0                       # Number of loads inserted to the mem dependence unit. (Count)
system.cpu.MemDepUnit__3.insertedStores             0                       # Number of stores inserted to the mem dependence unit. (Count)
system.cpu.MemDepUnit__3.conflictingLoads            0                       # Number of conflicting loads. (Count)
system.cpu.MemDepUnit__3.conflictingStores            0                       # Number of conflicting stores. (Count)
system.cpu.branchPred.lookups               164047639                       # Number of BP lookups (Count)
system.cpu.branchPred.condPredicted         130108204                       # Number of conditional branches predicted (Count)
system.cpu.branchPred.condIncorrect           6258659                       # Number of conditional branches incorrect (Count)
system.cpu.branchPred.BTBLookups             82698433                       # Number of BTB lookups (Count)
system.cpu.branchPred.BTBUpdates              2454048                       # Number of BTB updates (Count)
system.cpu.branchPred.BTBHits                82688584                       # Number of BTB hits (Count)
system.cpu.branchPred.BTBHitRatio            0.999881                       # BTB Hit Ratio (Ratio)
system.cpu.branchPred.RASUsed                10925552                       # Number of times the RAS was used to get a target. (Count)
system.cpu.branchPred.RASIncorrect                124                       # Number of incorrect RAS predictions. (Count)
system.cpu.branchPred.indirectLookups         9481038                       # Number of indirect predictor lookups. (Count)
system.cpu.branchPred.indirectHits            9459570                       # Number of indirect target hits. (Count)
system.cpu.branchPred.indirectMisses            21468                       # Number of indirect misses. (Count)
system.cpu.branchPred.indirectMispredicted        28798                       # Number of mispredicted indirect branches. (Count)
system.cpu.commit.commitSquashedInsts       594661922                       # The number of squashed insts skipped by commit (Count)
system.cpu.commit.commitNonSpecStalls        25730496                       # The number of times commit has been forced to stall to communicate backwards (Count)
system.cpu.commit.branchMispredicts           6230098                       # The number of times a branch was mispredicted (Count)
system.cpu.commit.numCommittedDist::samples    543086593                       # Number of insts commited each cycle (Count)
system.cpu.commit.numCommittedDist::mean     1.527741                       # Number of insts commited each cycle (Count)
system.cpu.commit.numCommittedDist::stdev     2.531724                       # Number of insts commited each cycle (Count)
system.cpu.commit.numCommittedDist::underflows            0      0.00%      0.00% # Number of insts commited each cycle (Count)
system.cpu.commit.numCommittedDist::0       322006571     59.29%     59.29% # Number of insts commited each cycle (Count)
system.cpu.commit.numCommittedDist::1        69934848     12.88%     72.17% # Number of insts commited each cycle (Count)
system.cpu.commit.numCommittedDist::2        20350057      3.75%     75.92% # Number of insts commited each cycle (Count)
system.cpu.commit.numCommittedDist::3        44796005      8.25%     84.16% # Number of insts commited each cycle (Count)
system.cpu.commit.numCommittedDist::4        13828362      2.55%     86.71% # Number of insts commited each cycle (Count)
system.cpu.commit.numCommittedDist::5         9973102      1.84%     88.55% # Number of insts commited each cycle (Count)
system.cpu.commit.numCommittedDist::6         7063108      1.30%     89.85% # Number of insts commited each cycle (Count)
system.cpu.commit.numCommittedDist::7         3961326      0.73%     90.58% # Number of insts commited each cycle (Count)
system.cpu.commit.numCommittedDist::8        51173214      9.42%    100.00% # Number of insts commited each cycle (Count)
system.cpu.commit.numCommittedDist::overflows            0      0.00%    100.00% # Number of insts commited each cycle (Count)
system.cpu.commit.numCommittedDist::min_value            0                       # Number of insts commited each cycle (Count)
system.cpu.commit.numCommittedDist::max_value            8                       # Number of insts commited each cycle (Count)
system.cpu.commit.numCommittedDist::total    543086593                       # Number of insts commited each cycle (Count)
system.cpu.commit.instsCommitted            419442540                       # Number of instructions committed (Count)
system.cpu.commit.opsCommitted              829695577                       # Number of ops (including micro ops) committed (Count)
system.cpu.commit.memRefs                   207475750                       # Number of memory references committed (Count)
system.cpu.commit.loads                     137985516                       # Number of loads committed (Count)
system.cpu.commit.amos                              0                       # Number of atomic instructions committed (Count)
system.cpu.commit.membars                    17153652                       # Number of memory barriers committed (Count)
system.cpu.commit.branches                   79020315                       # Number of branches committed (Count)
system.cpu.commit.vectorInstructions                0                       # Number of committed Vector instructions. (Count)
system.cpu.commit.floating                     844379                       # Number of committed floating point instructions. (Count)
system.cpu.commit.integer                   801267284                       # Number of committed integer instructions. (Count)
system.cpu.commit.functionCalls               5386871                       # Number of function calls committed. (Count)
system.cpu.commit.committedInstType_0::No_OpClass      9831831      1.18%      1.18% # Class of committed instruction (Count)
system.cpu.commit.committedInstType_0::IntAlu    611783051     73.74%     74.92% # Class of committed instruction (Count)
system.cpu.commit.committedInstType_0::IntMult        59920      0.01%     74.93% # Class of committed instruction (Count)
system.cpu.commit.committedInstType_0::IntDiv         1485      0.00%     74.93% # Class of committed instruction (Count)
system.cpu.commit.committedInstType_0::FloatAdd        43060      0.01%     74.93% # Class of committed instruction (Count)
system.cpu.commit.committedInstType_0::FloatCmp            0      0.00%     74.93% # Class of committed instruction (Count)
system.cpu.commit.committedInstType_0::FloatCvt           32      0.00%     74.93% # Class of committed instruction (Count)
system.cpu.commit.committedInstType_0::FloatMult            0      0.00%     74.93% # Class of committed instruction (Count)
system.cpu.commit.committedInstType_0::FloatMultAcc            0      0.00%     74.93% # Class of committed instruction (Count)
system.cpu.commit.committedInstType_0::FloatDiv            0      0.00%     74.93% # Class of committed instruction (Count)
system.cpu.commit.committedInstType_0::FloatMisc            0      0.00%     74.93% # Class of committed instruction (Count)
system.cpu.commit.committedInstType_0::FloatSqrt            0      0.00%     74.93% # Class of committed instruction (Count)
system.cpu.commit.committedInstType_0::SimdAdd          384      0.00%     74.93% # Class of committed instruction (Count)
system.cpu.commit.committedInstType_0::SimdAddAcc            0      0.00%     74.93% # Class of committed instruction (Count)
system.cpu.commit.committedInstType_0::SimdAlu       114488      0.01%     74.95% # Class of committed instruction (Count)
system.cpu.commit.committedInstType_0::SimdCmp            0      0.00%     74.95% # Class of committed instruction (Count)
system.cpu.commit.committedInstType_0::SimdCvt       114520      0.01%     74.96% # Class of committed instruction (Count)
system.cpu.commit.committedInstType_0::SimdMisc       270867      0.03%     74.99% # Class of committed instruction (Count)
system.cpu.commit.committedInstType_0::SimdMult            0      0.00%     74.99% # Class of committed instruction (Count)
system.cpu.commit.committedInstType_0::SimdMultAcc            0      0.00%     74.99% # Class of committed instruction (Count)
system.cpu.commit.committedInstType_0::SimdShift          189      0.00%     74.99% # Class of committed instruction (Count)
system.cpu.commit.committedInstType_0::SimdShiftAcc            0      0.00%     74.99% # Class of committed instruction (Count)
system.cpu.commit.committedInstType_0::SimdDiv            0      0.00%     74.99% # Class of committed instruction (Count)
system.cpu.commit.committedInstType_0::SimdSqrt            0      0.00%     74.99% # Class of committed instruction (Count)
system.cpu.commit.committedInstType_0::SimdFloatAdd            0      0.00%     74.99% # Class of committed instruction (Count)
system.cpu.commit.committedInstType_0::SimdFloatAlu            0      0.00%     74.99% # Class of committed instruction (Count)
system.cpu.commit.committedInstType_0::SimdFloatCmp            0      0.00%     74.99% # Class of committed instruction (Count)
system.cpu.commit.committedInstType_0::SimdFloatCvt            0      0.00%     74.99% # Class of committed instruction (Count)
system.cpu.commit.committedInstType_0::SimdFloatDiv            0      0.00%     74.99% # Class of committed instruction (Count)
system.cpu.commit.committedInstType_0::SimdFloatMisc            0      0.00%     74.99% # Class of committed instruction (Count)
system.cpu.commit.committedInstType_0::SimdFloatMult            0      0.00%     74.99% # Class of committed instruction (Count)
system.cpu.commit.committedInstType_0::SimdFloatMultAcc            0      0.00%     74.99% # Class of committed instruction (Count)
system.cpu.commit.committedInstType_0::SimdFloatSqrt            0      0.00%     74.99% # Class of committed instruction (Count)
system.cpu.commit.committedInstType_0::SimdReduceAdd            0      0.00%     74.99% # Class of committed instruction (Count)
system.cpu.commit.committedInstType_0::SimdReduceAlu            0      0.00%     74.99% # Class of committed instruction (Count)
system.cpu.commit.committedInstType_0::SimdReduceCmp            0      0.00%     74.99% # Class of committed instruction (Count)
system.cpu.commit.committedInstType_0::SimdFloatReduceAdd            0      0.00%     74.99% # Class of committed instruction (Count)
system.cpu.commit.committedInstType_0::SimdFloatReduceCmp            0      0.00%     74.99% # Class of committed instruction (Count)
system.cpu.commit.committedInstType_0::SimdAes            0      0.00%     74.99% # Class of committed instruction (Count)
system.cpu.commit.committedInstType_0::SimdAesMix            0      0.00%     74.99% # Class of committed instruction (Count)
system.cpu.commit.committedInstType_0::SimdSha1Hash            0      0.00%     74.99% # Class of committed instruction (Count)
system.cpu.commit.committedInstType_0::SimdSha1Hash2            0      0.00%     74.99% # Class of committed instruction (Count)
system.cpu.commit.committedInstType_0::SimdSha256Hash            0      0.00%     74.99% # Class of committed instruction (Count)
system.cpu.commit.committedInstType_0::SimdSha256Hash2            0      0.00%     74.99% # Class of committed instruction (Count)
system.cpu.commit.committedInstType_0::SimdShaSigma2            0      0.00%     74.99% # Class of committed instruction (Count)
system.cpu.commit.committedInstType_0::SimdShaSigma3            0      0.00%     74.99% # Class of committed instruction (Count)
system.cpu.commit.committedInstType_0::SimdPredAlu            0      0.00%     74.99% # Class of committed instruction (Count)
system.cpu.commit.committedInstType_0::MemRead    137899243     16.62%     91.61% # Class of committed instruction (Count)
system.cpu.commit.committedInstType_0::MemWrite     69375440      8.36%     99.98% # Class of committed instruction (Count)
system.cpu.commit.committedInstType_0::FloatMemRead        86273      0.01%     99.99% # Class of committed instruction (Count)
system.cpu.commit.committedInstType_0::FloatMemWrite       114794      0.01%    100.00% # Class of committed instruction (Count)
system.cpu.commit.committedInstType_0::IprAccess            0      0.00%    100.00% # Class of committed instruction (Count)
system.cpu.commit.committedInstType_0::InstPrefetch            0      0.00%    100.00% # Class of committed instruction (Count)
system.cpu.commit.committedInstType_0::total    829695577                       # Class of committed instruction (Count)
system.cpu.commit.commitEligibleSamples      51173214                       # number cycles where commit BW limit reached (Cycle)
system.cpu.dcache.demandHits::cpu.data      206914586                       # number of demand (read+write) hits (Count)
system.cpu.dcache.demandHits::total         206914586                       # number of demand (read+write) hits (Count)
system.cpu.dcache.overallHits::cpu.data     206914586                       # number of overall hits (Count)
system.cpu.dcache.overallHits::total        206914586                       # number of overall hits (Count)
system.cpu.dcache.demandMisses::cpu.data         7269                       # number of demand (read+write) misses (Count)
system.cpu.dcache.demandMisses::total            7269                       # number of demand (read+write) misses (Count)
system.cpu.dcache.overallMisses::cpu.data         7269                       # number of overall misses (Count)
system.cpu.dcache.overallMisses::total           7269                       # number of overall misses (Count)
system.cpu.dcache.demandMissLatency::cpu.data    426152500                       # number of demand (read+write) miss ticks (Tick)
system.cpu.dcache.demandMissLatency::total    426152500                       # number of demand (read+write) miss ticks (Tick)
system.cpu.dcache.overallMissLatency::cpu.data    426152500                       # number of overall miss ticks (Tick)
system.cpu.dcache.overallMissLatency::total    426152500                       # number of overall miss ticks (Tick)
system.cpu.dcache.demandAccesses::cpu.data    206921855                       # number of demand (read+write) accesses (Count)
system.cpu.dcache.demandAccesses::total     206921855                       # number of demand (read+write) accesses (Count)
system.cpu.dcache.overallAccesses::cpu.data    206921855                       # number of overall (read+write) accesses (Count)
system.cpu.dcache.overallAccesses::total    206921855                       # number of overall (read+write) accesses (Count)
system.cpu.dcache.demandMissRate::cpu.data     0.000035                       # miss rate for demand accesses (Ratio)
system.cpu.dcache.demandMissRate::total      0.000035                       # miss rate for demand accesses (Ratio)
system.cpu.dcache.overallMissRate::cpu.data     0.000035                       # miss rate for overall accesses (Ratio)
system.cpu.dcache.overallMissRate::total     0.000035                       # miss rate for overall accesses (Ratio)
system.cpu.dcache.demandAvgMissLatency::cpu.data 58626.014582                       # average overall miss latency in ticks ((Tick/Count))
system.cpu.dcache.demandAvgMissLatency::total 58626.014582                       # average overall miss latency in ticks ((Tick/Count))
system.cpu.dcache.overallAvgMissLatency::cpu.data 58626.014582                       # average overall miss latency ((Tick/Count))
system.cpu.dcache.overallAvgMissLatency::total 58626.014582                       # average overall miss latency ((Tick/Count))
system.cpu.dcache.blockedCycles::no_mshrs        15546                       # number of cycles access was blocked (Cycle)
system.cpu.dcache.blockedCycles::no_targets            0                       # number of cycles access was blocked (Cycle)
system.cpu.dcache.blockedCauses::no_mshrs          355                       # number of times access was blocked (Count)
system.cpu.dcache.blockedCauses::no_targets            0                       # number of times access was blocked (Count)
system.cpu.dcache.avgBlocked::no_mshrs      43.791549                       # average number of cycles each access was blocked ((Cycle/Count))
system.cpu.dcache.avgBlocked::no_targets          nan                       # average number of cycles each access was blocked ((Cycle/Count))
system.cpu.dcache.writebacks::writebacks          359                       # number of writebacks (Count)
system.cpu.dcache.writebacks::total               359                       # number of writebacks (Count)
system.cpu.dcache.demandMshrHits::cpu.data         5180                       # number of demand (read+write) MSHR hits (Count)
system.cpu.dcache.demandMshrHits::total          5180                       # number of demand (read+write) MSHR hits (Count)
system.cpu.dcache.overallMshrHits::cpu.data         5180                       # number of overall MSHR hits (Count)
system.cpu.dcache.overallMshrHits::total         5180                       # number of overall MSHR hits (Count)
system.cpu.dcache.demandMshrMisses::cpu.data         2089                       # number of demand (read+write) MSHR misses (Count)
system.cpu.dcache.demandMshrMisses::total         2089                       # number of demand (read+write) MSHR misses (Count)
system.cpu.dcache.overallMshrMisses::cpu.data         2089                       # number of overall MSHR misses (Count)
system.cpu.dcache.overallMshrMisses::total         2089                       # number of overall MSHR misses (Count)
system.cpu.dcache.demandMshrMissLatency::cpu.data    141614500                       # number of demand (read+write) MSHR miss ticks (Tick)
system.cpu.dcache.demandMshrMissLatency::total    141614500                       # number of demand (read+write) MSHR miss ticks (Tick)
system.cpu.dcache.overallMshrMissLatency::cpu.data    141614500                       # number of overall MSHR miss ticks (Tick)
system.cpu.dcache.overallMshrMissLatency::total    141614500                       # number of overall MSHR miss ticks (Tick)
system.cpu.dcache.demandMshrMissRate::cpu.data     0.000010                       # mshr miss ratio for demand accesses (Ratio)
system.cpu.dcache.demandMshrMissRate::total     0.000010                       # mshr miss ratio for demand accesses (Ratio)
system.cpu.dcache.overallMshrMissRate::cpu.data     0.000010                       # mshr miss ratio for overall accesses (Ratio)
system.cpu.dcache.overallMshrMissRate::total     0.000010                       # mshr miss ratio for overall accesses (Ratio)
system.cpu.dcache.demandAvgMshrMissLatency::cpu.data 67790.569651                       # average overall mshr miss latency ((Tick/Count))
system.cpu.dcache.demandAvgMshrMissLatency::total 67790.569651                       # average overall mshr miss latency ((Tick/Count))
system.cpu.dcache.overallAvgMshrMissLatency::cpu.data 67790.569651                       # average overall mshr miss latency ((Tick/Count))
system.cpu.dcache.overallAvgMshrMissLatency::total 67790.569651                       # average overall mshr miss latency ((Tick/Count))
system.cpu.dcache.replacements                   1071                       # number of replacements (Count)
system.cpu.dcache.LockedRMWReadReq.hits::cpu.data      8576824                       # number of LockedRMWReadReq hits (Count)
system.cpu.dcache.LockedRMWReadReq.hits::total      8576824                       # number of LockedRMWReadReq hits (Count)
system.cpu.dcache.LockedRMWReadReq.misses::cpu.data            2                       # number of LockedRMWReadReq misses (Count)
system.cpu.dcache.LockedRMWReadReq.misses::total            2                       # number of LockedRMWReadReq misses (Count)
system.cpu.dcache.LockedRMWReadReq.missLatency::cpu.data       107500                       # number of LockedRMWReadReq miss ticks (Tick)
system.cpu.dcache.LockedRMWReadReq.missLatency::total       107500                       # number of LockedRMWReadReq miss ticks (Tick)
system.cpu.dcache.LockedRMWReadReq.accesses::cpu.data      8576826                       # number of LockedRMWReadReq accesses(hits+misses) (Count)
system.cpu.dcache.LockedRMWReadReq.accesses::total      8576826                       # number of LockedRMWReadReq accesses(hits+misses) (Count)
system.cpu.dcache.LockedRMWReadReq.missRate::cpu.data     0.000000                       # miss rate for LockedRMWReadReq accesses (Ratio)
system.cpu.dcache.LockedRMWReadReq.missRate::total     0.000000                       # miss rate for LockedRMWReadReq accesses (Ratio)
system.cpu.dcache.LockedRMWReadReq.avgMissLatency::cpu.data        53750                       # average LockedRMWReadReq miss latency ((Tick/Count))
system.cpu.dcache.LockedRMWReadReq.avgMissLatency::total        53750                       # average LockedRMWReadReq miss latency ((Tick/Count))
system.cpu.dcache.LockedRMWReadReq.mshrMisses::cpu.data            2                       # number of LockedRMWReadReq MSHR misses (Count)
system.cpu.dcache.LockedRMWReadReq.mshrMisses::total            2                       # number of LockedRMWReadReq MSHR misses (Count)
system.cpu.dcache.LockedRMWReadReq.mshrMissLatency::cpu.data  32163313000                       # number of LockedRMWReadReq MSHR miss ticks (Tick)
system.cpu.dcache.LockedRMWReadReq.mshrMissLatency::total  32163313000                       # number of LockedRMWReadReq MSHR miss ticks (Tick)
system.cpu.dcache.LockedRMWReadReq.mshrMissRate::cpu.data     0.000000                       # mshr miss rate for LockedRMWReadReq accesses (Ratio)
system.cpu.dcache.LockedRMWReadReq.mshrMissRate::total     0.000000                       # mshr miss rate for LockedRMWReadReq accesses (Ratio)
system.cpu.dcache.LockedRMWReadReq.avgMshrMissLatency::cpu.data  16081656500                       # average LockedRMWReadReq mshr miss latency ((Tick/Count))
system.cpu.dcache.LockedRMWReadReq.avgMshrMissLatency::total  16081656500                       # average LockedRMWReadReq mshr miss latency ((Tick/Count))
system.cpu.dcache.LockedRMWWriteReq.hits::cpu.data      8576826                       # number of LockedRMWWriteReq hits (Count)
system.cpu.dcache.LockedRMWWriteReq.hits::total      8576826                       # number of LockedRMWWriteReq hits (Count)
system.cpu.dcache.LockedRMWWriteReq.accesses::cpu.data      8576826                       # number of LockedRMWWriteReq accesses(hits+misses) (Count)
system.cpu.dcache.LockedRMWWriteReq.accesses::total      8576826                       # number of LockedRMWWriteReq accesses(hits+misses) (Count)
system.cpu.dcache.ReadReq.hits::cpu.data    146001797                       # number of ReadReq hits (Count)
system.cpu.dcache.ReadReq.hits::total       146001797                       # number of ReadReq hits (Count)
system.cpu.dcache.ReadReq.misses::cpu.data         6649                       # number of ReadReq misses (Count)
system.cpu.dcache.ReadReq.misses::total          6649                       # number of ReadReq misses (Count)
system.cpu.dcache.ReadReq.missLatency::cpu.data    382876000                       # number of ReadReq miss ticks (Tick)
system.cpu.dcache.ReadReq.missLatency::total    382876000                       # number of ReadReq miss ticks (Tick)
system.cpu.dcache.ReadReq.accesses::cpu.data    146008446                       # number of ReadReq accesses(hits+misses) (Count)
system.cpu.dcache.ReadReq.accesses::total    146008446                       # number of ReadReq accesses(hits+misses) (Count)
system.cpu.dcache.ReadReq.missRate::cpu.data     0.000046                       # miss rate for ReadReq accesses (Ratio)
system.cpu.dcache.ReadReq.missRate::total     0.000046                       # miss rate for ReadReq accesses (Ratio)
system.cpu.dcache.ReadReq.avgMissLatency::cpu.data 57583.997594                       # average ReadReq miss latency ((Tick/Count))
system.cpu.dcache.ReadReq.avgMissLatency::total 57583.997594                       # average ReadReq miss latency ((Tick/Count))
system.cpu.dcache.ReadReq.mshrHits::cpu.data         5177                       # number of ReadReq MSHR hits (Count)
system.cpu.dcache.ReadReq.mshrHits::total         5177                       # number of ReadReq MSHR hits (Count)
system.cpu.dcache.ReadReq.mshrMisses::cpu.data         1472                       # number of ReadReq MSHR misses (Count)
system.cpu.dcache.ReadReq.mshrMisses::total         1472                       # number of ReadReq MSHR misses (Count)
system.cpu.dcache.ReadReq.mshrMissLatency::cpu.data     99183000                       # number of ReadReq MSHR miss ticks (Tick)
system.cpu.dcache.ReadReq.mshrMissLatency::total     99183000                       # number of ReadReq MSHR miss ticks (Tick)
system.cpu.dcache.ReadReq.mshrMissRate::cpu.data     0.000010                       # mshr miss rate for ReadReq accesses (Ratio)
system.cpu.dcache.ReadReq.mshrMissRate::total     0.000010                       # mshr miss rate for ReadReq accesses (Ratio)
system.cpu.dcache.ReadReq.avgMshrMissLatency::cpu.data 67379.755435                       # average ReadReq mshr miss latency ((Tick/Count))
system.cpu.dcache.ReadReq.avgMshrMissLatency::total 67379.755435                       # average ReadReq mshr miss latency ((Tick/Count))
system.cpu.dcache.WriteReq.hits::cpu.data     60912789                       # number of WriteReq hits (Count)
system.cpu.dcache.WriteReq.hits::total       60912789                       # number of WriteReq hits (Count)
system.cpu.dcache.WriteReq.misses::cpu.data          620                       # number of WriteReq misses (Count)
system.cpu.dcache.WriteReq.misses::total          620                       # number of WriteReq misses (Count)
system.cpu.dcache.WriteReq.missLatency::cpu.data     43276500                       # number of WriteReq miss ticks (Tick)
system.cpu.dcache.WriteReq.missLatency::total     43276500                       # number of WriteReq miss ticks (Tick)
system.cpu.dcache.WriteReq.accesses::cpu.data     60913409                       # number of WriteReq accesses(hits+misses) (Count)
system.cpu.dcache.WriteReq.accesses::total     60913409                       # number of WriteReq accesses(hits+misses) (Count)
system.cpu.dcache.WriteReq.missRate::cpu.data     0.000010                       # miss rate for WriteReq accesses (Ratio)
system.cpu.dcache.WriteReq.missRate::total     0.000010                       # miss rate for WriteReq accesses (Ratio)
system.cpu.dcache.WriteReq.avgMissLatency::cpu.data 69800.806452                       # average WriteReq miss latency ((Tick/Count))
system.cpu.dcache.WriteReq.avgMissLatency::total 69800.806452                       # average WriteReq miss latency ((Tick/Count))
system.cpu.dcache.WriteReq.mshrHits::cpu.data            3                       # number of WriteReq MSHR hits (Count)
system.cpu.dcache.WriteReq.mshrHits::total            3                       # number of WriteReq MSHR hits (Count)
system.cpu.dcache.WriteReq.mshrMisses::cpu.data          617                       # number of WriteReq MSHR misses (Count)
system.cpu.dcache.WriteReq.mshrMisses::total          617                       # number of WriteReq MSHR misses (Count)
system.cpu.dcache.WriteReq.mshrMissLatency::cpu.data     42431500                       # number of WriteReq MSHR miss ticks (Tick)
system.cpu.dcache.WriteReq.mshrMissLatency::total     42431500                       # number of WriteReq MSHR miss ticks (Tick)
system.cpu.dcache.WriteReq.mshrMissRate::cpu.data     0.000010                       # mshr miss rate for WriteReq accesses (Ratio)
system.cpu.dcache.WriteReq.mshrMissRate::total     0.000010                       # mshr miss rate for WriteReq accesses (Ratio)
system.cpu.dcache.WriteReq.avgMshrMissLatency::cpu.data 68770.664506                       # average WriteReq mshr miss latency ((Tick/Count))
system.cpu.dcache.WriteReq.avgMshrMissLatency::total 68770.664506                       # average WriteReq mshr miss latency ((Tick/Count))
system.cpu.dcache.power_state.pwrStateResidencyTicks::UNDEFINED 310712720000                       # Cumulative time (in ticks) in various power states (Tick)
system.cpu.dcache.tags.tagsInUse          1018.827270                       # Average ticks per tags in use ((Tick/Count))
system.cpu.dcache.tags.totalRefs            224070327                       # Total number of references to valid blocks. (Count)
system.cpu.dcache.tags.sampledRefs               2090                       # Sample count of references to valid blocks. (Count)
system.cpu.dcache.tags.avgRefs           107210.682775                       # Average number of references to valid blocks. ((Count/Count))
system.cpu.dcache.tags.warmupTick              170500                       # The tick when the warmup percentage was hit. (Tick)
system.cpu.dcache.tags.occupancies::cpu.data  1018.827270                       # Average occupied blocks per tick, per requestor ((Count/Tick))
system.cpu.dcache.tags.avgOccs::cpu.data     0.994949                       # Average percentage of cache occupancy ((Ratio/Tick))
system.cpu.dcache.tags.avgOccs::total        0.994949                       # Average percentage of cache occupancy ((Ratio/Tick))
system.cpu.dcache.tags.occupanciesTaskId::1024         1019                       # Occupied blocks per task id (Count)
system.cpu.dcache.tags.ageTaskId_1024::0           14                       # Occupied blocks per task id, per block age (Count)
system.cpu.dcache.tags.ageTaskId_1024::4         1005                       # Occupied blocks per task id, per block age (Count)
system.cpu.dcache.tags.ratioOccsTaskId::1024     0.995117                       # Ratio of occupied blocks and all blocks, per task id (Ratio)
system.cpu.dcache.tags.tagAccesses          448153104                       # Number of tag accesses (Count)
system.cpu.dcache.tags.dataAccesses         448153104                       # Number of data accesses (Count)
system.cpu.dcache.tags.power_state.pwrStateResidencyTicks::UNDEFINED 310712720000                       # Cumulative time (in ticks) in various power states (Tick)
system.cpu.decode.idleCycles                 95738894                       # Number of cycles decode is idle (Cycle)
system.cpu.decode.blockedCycles             289854765                       # Number of cycles decode is blocked (Cycle)
system.cpu.decode.runCycles                 178295994                       # Number of cycles decode is running (Cycle)
system.cpu.decode.unblockCycles              46918017                       # Number of cycles decode is unblocking (Cycle)
system.cpu.decode.squashCycles               10506492                       # Number of cycles decode is squashing (Cycle)
system.cpu.decode.branchResolved             73995933                       # Number of times decode resolved a branch (Count)
system.cpu.decode.branchMispred                 43311                       # Number of times decode detected a branch misprediction (Count)
system.cpu.decode.decodedInsts             1548076152                       # Number of instructions handled by decode (Count)
system.cpu.decode.squashedInsts                  3309                       # Number of squashed instructions handled by decode (Count)
system.cpu.fetch.icacheStallCycles          158248740                       # Number of cycles fetch is stalled on an Icache miss (Cycle)
system.cpu.fetch.insts                      877777667                       # Number of instructions fetch has processed (Count)
system.cpu.fetch.branches                   164047639                       # Number of branches that fetch encountered (Count)
system.cpu.fetch.predictedBranches          103073706                       # Number of branches that fetch has predicted taken (Count)
system.cpu.fetch.cycles                     452098916                       # Number of cycles fetch has run and was not squashing or blocked (Cycle)
system.cpu.fetch.squashCycles                21099558                       # Number of cycles fetch has spent squashing (Cycle)
system.cpu.fetch.miscStallCycles                28955                       # Number of cycles fetch has spent waiting on interrupts, or bad addresses, or out of MSHRs (Cycle)
system.cpu.fetch.pendingTrapStallCycles        387772                       # Number of stall cycles due to pending traps (Cycle)
system.cpu.fetch.cacheLines                 149360835                       # Number of cache lines fetched (Count)
system.cpu.fetch.icacheSquashes               2761117                       # Number of outstanding Icache misses that were squashed (Count)
system.cpu.fetch.nisnDist::samples          621314162                       # Number of instructions fetched each cycle (Total) (Count)
system.cpu.fetch.nisnDist::mean              2.790981                       # Number of instructions fetched each cycle (Total) (Count)
system.cpu.fetch.nisnDist::stdev             3.425498                       # Number of instructions fetched each cycle (Total) (Count)
system.cpu.fetch.nisnDist::underflows               0      0.00%      0.00% # Number of instructions fetched each cycle (Total) (Count)
system.cpu.fetch.nisnDist::0                334721593     53.87%     53.87% # Number of instructions fetched each cycle (Total) (Count)
system.cpu.fetch.nisnDist::1                 18101387      2.91%     56.79% # Number of instructions fetched each cycle (Total) (Count)
system.cpu.fetch.nisnDist::2                 22542529      3.63%     60.41% # Number of instructions fetched each cycle (Total) (Count)
system.cpu.fetch.nisnDist::3                 14203697      2.29%     62.70% # Number of instructions fetched each cycle (Total) (Count)
system.cpu.fetch.nisnDist::4                 21151093      3.40%     66.11% # Number of instructions fetched each cycle (Total) (Count)
system.cpu.fetch.nisnDist::5                 20540273      3.31%     69.41% # Number of instructions fetched each cycle (Total) (Count)
system.cpu.fetch.nisnDist::6                 35338987      5.69%     75.10% # Number of instructions fetched each cycle (Total) (Count)
system.cpu.fetch.nisnDist::7                  8777951      1.41%     76.51% # Number of instructions fetched each cycle (Total) (Count)
system.cpu.fetch.nisnDist::8                145936652     23.49%    100.00% # Number of instructions fetched each cycle (Total) (Count)
system.cpu.fetch.nisnDist::overflows                0      0.00%    100.00% # Number of instructions fetched each cycle (Total) (Count)
system.cpu.fetch.nisnDist::min_value                0                       # Number of instructions fetched each cycle (Total) (Count)
system.cpu.fetch.nisnDist::max_value                8                       # Number of instructions fetched each cycle (Total) (Count)
system.cpu.fetch.nisnDist::total            621314162                       # Number of instructions fetched each cycle (Total) (Count)
system.cpu.fetch.branchRate                  0.263986                       # Number of branch fetches per cycle (Ratio)
system.cpu.fetch.rate                        1.412523                       # Number of inst fetches per cycle ((Count/Cycle))
system.cpu.icache.demandHits::cpu.inst      149239871                       # number of demand (read+write) hits (Count)
system.cpu.icache.demandHits::total         149239871                       # number of demand (read+write) hits (Count)
system.cpu.icache.overallHits::cpu.inst     149239871                       # number of overall hits (Count)
system.cpu.icache.overallHits::total        149239871                       # number of overall hits (Count)
system.cpu.icache.demandMisses::cpu.inst       120964                       # number of demand (read+write) misses (Count)
system.cpu.icache.demandMisses::total          120964                       # number of demand (read+write) misses (Count)
system.cpu.icache.overallMisses::cpu.inst       120964                       # number of overall misses (Count)
system.cpu.icache.overallMisses::total         120964                       # number of overall misses (Count)
system.cpu.icache.demandMissLatency::cpu.inst   1579183000                       # number of demand (read+write) miss ticks (Tick)
system.cpu.icache.demandMissLatency::total   1579183000                       # number of demand (read+write) miss ticks (Tick)
system.cpu.icache.overallMissLatency::cpu.inst   1579183000                       # number of overall miss ticks (Tick)
system.cpu.icache.overallMissLatency::total   1579183000                       # number of overall miss ticks (Tick)
system.cpu.icache.demandAccesses::cpu.inst    149360835                       # number of demand (read+write) accesses (Count)
system.cpu.icache.demandAccesses::total     149360835                       # number of demand (read+write) accesses (Count)
system.cpu.icache.overallAccesses::cpu.inst    149360835                       # number of overall (read+write) accesses (Count)
system.cpu.icache.overallAccesses::total    149360835                       # number of overall (read+write) accesses (Count)
system.cpu.icache.demandMissRate::cpu.inst     0.000810                       # miss rate for demand accesses (Ratio)
system.cpu.icache.demandMissRate::total      0.000810                       # miss rate for demand accesses (Ratio)
system.cpu.icache.overallMissRate::cpu.inst     0.000810                       # miss rate for overall accesses (Ratio)
system.cpu.icache.overallMissRate::total     0.000810                       # miss rate for overall accesses (Ratio)
system.cpu.icache.demandAvgMissLatency::cpu.inst 13054.983301                       # average overall miss latency in ticks ((Tick/Count))
system.cpu.icache.demandAvgMissLatency::total 13054.983301                       # average overall miss latency in ticks ((Tick/Count))
system.cpu.icache.overallAvgMissLatency::cpu.inst 13054.983301                       # average overall miss latency ((Tick/Count))
system.cpu.icache.overallAvgMissLatency::total 13054.983301                       # average overall miss latency ((Tick/Count))
system.cpu.icache.blockedCycles::no_mshrs          460                       # number of cycles access was blocked (Cycle)
system.cpu.icache.blockedCycles::no_targets            0                       # number of cycles access was blocked (Cycle)
system.cpu.icache.blockedCauses::no_mshrs            5                       # number of times access was blocked (Count)
system.cpu.icache.blockedCauses::no_targets            0                       # number of times access was blocked (Count)
system.cpu.icache.avgBlocked::no_mshrs             92                       # average number of cycles each access was blocked ((Cycle/Count))
system.cpu.icache.avgBlocked::no_targets          nan                       # average number of cycles each access was blocked ((Cycle/Count))
system.cpu.icache.demandMshrHits::cpu.inst        14916                       # number of demand (read+write) MSHR hits (Count)
system.cpu.icache.demandMshrHits::total         14916                       # number of demand (read+write) MSHR hits (Count)
system.cpu.icache.overallMshrHits::cpu.inst        14916                       # number of overall MSHR hits (Count)
system.cpu.icache.overallMshrHits::total        14916                       # number of overall MSHR hits (Count)
system.cpu.icache.demandMshrMisses::cpu.inst       106048                       # number of demand (read+write) MSHR misses (Count)
system.cpu.icache.demandMshrMisses::total       106048                       # number of demand (read+write) MSHR misses (Count)
system.cpu.icache.overallMshrMisses::cpu.inst       106048                       # number of overall MSHR misses (Count)
system.cpu.icache.overallMshrMisses::total       106048                       # number of overall MSHR misses (Count)
system.cpu.icache.demandMshrMissLatency::cpu.inst   1361621000                       # number of demand (read+write) MSHR miss ticks (Tick)
system.cpu.icache.demandMshrMissLatency::total   1361621000                       # number of demand (read+write) MSHR miss ticks (Tick)
system.cpu.icache.overallMshrMissLatency::cpu.inst   1361621000                       # number of overall MSHR miss ticks (Tick)
system.cpu.icache.overallMshrMissLatency::total   1361621000                       # number of overall MSHR miss ticks (Tick)
system.cpu.icache.demandMshrMissRate::cpu.inst     0.000710                       # mshr miss ratio for demand accesses (Ratio)
system.cpu.icache.demandMshrMissRate::total     0.000710                       # mshr miss ratio for demand accesses (Ratio)
system.cpu.icache.overallMshrMissRate::cpu.inst     0.000710                       # mshr miss ratio for overall accesses (Ratio)
system.cpu.icache.overallMshrMissRate::total     0.000710                       # mshr miss ratio for overall accesses (Ratio)
system.cpu.icache.demandAvgMshrMissLatency::cpu.inst 12839.666943                       # average overall mshr miss latency ((Tick/Count))
system.cpu.icache.demandAvgMshrMissLatency::total 12839.666943                       # average overall mshr miss latency ((Tick/Count))
system.cpu.icache.overallAvgMshrMissLatency::cpu.inst 12839.666943                       # average overall mshr miss latency ((Tick/Count))
system.cpu.icache.overallAvgMshrMissLatency::total 12839.666943                       # average overall mshr miss latency ((Tick/Count))
system.cpu.icache.replacements                 105791                       # number of replacements (Count)
system.cpu.icache.ReadReq.hits::cpu.inst    149239871                       # number of ReadReq hits (Count)
system.cpu.icache.ReadReq.hits::total       149239871                       # number of ReadReq hits (Count)
system.cpu.icache.ReadReq.misses::cpu.inst       120964                       # number of ReadReq misses (Count)
system.cpu.icache.ReadReq.misses::total        120964                       # number of ReadReq misses (Count)
system.cpu.icache.ReadReq.missLatency::cpu.inst   1579183000                       # number of ReadReq miss ticks (Tick)
system.cpu.icache.ReadReq.missLatency::total   1579183000                       # number of ReadReq miss ticks (Tick)
system.cpu.icache.ReadReq.accesses::cpu.inst    149360835                       # number of ReadReq accesses(hits+misses) (Count)
system.cpu.icache.ReadReq.accesses::total    149360835                       # number of ReadReq accesses(hits+misses) (Count)
system.cpu.icache.ReadReq.missRate::cpu.inst     0.000810                       # miss rate for ReadReq accesses (Ratio)
system.cpu.icache.ReadReq.missRate::total     0.000810                       # miss rate for ReadReq accesses (Ratio)
system.cpu.icache.ReadReq.avgMissLatency::cpu.inst 13054.983301                       # average ReadReq miss latency ((Tick/Count))
system.cpu.icache.ReadReq.avgMissLatency::total 13054.983301                       # average ReadReq miss latency ((Tick/Count))
system.cpu.icache.ReadReq.mshrHits::cpu.inst        14916                       # number of ReadReq MSHR hits (Count)
system.cpu.icache.ReadReq.mshrHits::total        14916                       # number of ReadReq MSHR hits (Count)
system.cpu.icache.ReadReq.mshrMisses::cpu.inst       106048                       # number of ReadReq MSHR misses (Count)
system.cpu.icache.ReadReq.mshrMisses::total       106048                       # number of ReadReq MSHR misses (Count)
system.cpu.icache.ReadReq.mshrMissLatency::cpu.inst   1361621000                       # number of ReadReq MSHR miss ticks (Tick)
system.cpu.icache.ReadReq.mshrMissLatency::total   1361621000                       # number of ReadReq MSHR miss ticks (Tick)
system.cpu.icache.ReadReq.mshrMissRate::cpu.inst     0.000710                       # mshr miss rate for ReadReq accesses (Ratio)
system.cpu.icache.ReadReq.mshrMissRate::total     0.000710                       # mshr miss rate for ReadReq accesses (Ratio)
system.cpu.icache.ReadReq.avgMshrMissLatency::cpu.inst 12839.666943                       # average ReadReq mshr miss latency ((Tick/Count))
system.cpu.icache.ReadReq.avgMshrMissLatency::total 12839.666943                       # average ReadReq mshr miss latency ((Tick/Count))
system.cpu.icache.power_state.pwrStateResidencyTicks::UNDEFINED 310712720000                       # Cumulative time (in ticks) in various power states (Tick)
system.cpu.icache.tags.tagsInUse           255.987907                       # Average ticks per tags in use ((Tick/Count))
system.cpu.icache.tags.totalRefs            149345918                       # Total number of references to valid blocks. (Count)
system.cpu.icache.tags.sampledRefs             106047                       # Sample count of references to valid blocks. (Count)
system.cpu.icache.tags.avgRefs            1408.299320                       # Average number of references to valid blocks. ((Count/Count))
system.cpu.icache.tags.warmupTick               82000                       # The tick when the warmup percentage was hit. (Tick)
system.cpu.icache.tags.occupancies::cpu.inst   255.987907                       # Average occupied blocks per tick, per requestor ((Count/Tick))
system.cpu.icache.tags.avgOccs::cpu.inst     0.999953                       # Average percentage of cache occupancy ((Ratio/Tick))
system.cpu.icache.tags.avgOccs::total        0.999953                       # Average percentage of cache occupancy ((Ratio/Tick))
system.cpu.icache.tags.occupanciesTaskId::1024          256                       # Occupied blocks per task id (Count)
system.cpu.icache.tags.ageTaskId_1024::0          110                       # Occupied blocks per task id, per block age (Count)
system.cpu.icache.tags.ageTaskId_1024::4          146                       # Occupied blocks per task id, per block age (Count)
system.cpu.icache.tags.ratioOccsTaskId::1024            1                       # Ratio of occupied blocks and all blocks, per task id (Ratio)
system.cpu.icache.tags.tagAccesses          298827717                       # Number of tag accesses (Count)
system.cpu.icache.tags.dataAccesses         298827717                       # Number of data accesses (Count)
system.cpu.icache.tags.power_state.pwrStateResidencyTicks::UNDEFINED 310712720000                       # Cumulative time (in ticks) in various power states (Tick)
system.cpu.iew.idleCycles                           0                       # Number of cycles IEW is idle (Cycle)
system.cpu.iew.squashCycles                  10506492                       # Number of cycles IEW is squashing (Cycle)
system.cpu.iew.blockCycles                   94133975                       # Number of cycles IEW is blocking (Cycle)
system.cpu.iew.unblockCycles                 10256657                       # Number of cycles IEW is unblocking (Cycle)
system.cpu.iew.dispatchedInsts             1424827008                       # Number of instructions dispatched to IQ (Count)
system.cpu.iew.dispSquashedInsts                  422                       # Number of squashed instructions skipped by dispatch (Count)
system.cpu.iew.dispLoadInsts                236011476                       # Number of dispatched load instructions (Count)
system.cpu.iew.dispStoreInsts               120288041                       # Number of dispatched store instructions (Count)
system.cpu.iew.dispNonSpecInsts              17624844                       # Number of dispatched non-speculative instructions (Count)
system.cpu.iew.iqFullEvents                   4109726                       # Number of times the IQ has become full, causing a stall (Count)
system.cpu.iew.lsqFullEvents                     1127                       # Number of times the LSQ has become full, causing a stall (Count)
system.cpu.iew.memOrderViolationEvents        4262824                       # Number of memory order violations (Count)
system.cpu.iew.predictedTakenIncorrect        4560583                       # Number of branches that were predicted taken incorrectly (Count)
system.cpu.iew.predictedNotTakenIncorrect      2818045                       # Number of branches that were predicted not taken incorrectly (Count)
system.cpu.iew.branchMispredicts              7378628                       # Number of branch mispredicts detected at execute (Count)
system.cpu.iew.instsToCommit               1140844591                       # Cumulative count of insts sent to commit (Count)
system.cpu.iew.writebackCount              1137801868                       # Cumulative count of insts written-back (Count)
system.cpu.iew.producerInst                 800756068                       # Number of instructions producing a value (Count)
system.cpu.iew.consumerInst                1180248173                       # Number of instructions consuming a value (Count)
system.cpu.iew.wbRate                        1.830955                       # Insts written-back per cycle ((Count/Cycle))
system.cpu.iew.wbFanout                      0.678464                       # Average fanout of values written-back ((Count/Count))
system.cpu.interrupts.clk_domain.clock           8000                       # Clock period in ticks (Tick)
system.cpu.lsq0.forwLoads                     5062912                       # Number of loads that had data forwarded from stores (Count)
system.cpu.lsq0.squashedLoads                98025960                       # Number of loads squashed (Count)
system.cpu.lsq0.ignoredResponses                   43                       # Number of memory responses ignored because the instruction is squashed (Count)
system.cpu.lsq0.memOrderViolation             4262824                       # Number of memory ordering violations (Count)
system.cpu.lsq0.squashedStores               50797807                       # Number of stores squashed (Count)
system.cpu.lsq0.rescheduledLoads                    5                       # Number of loads that were rescheduled (Count)
system.cpu.lsq0.blockedByCache                    178                       # Number of times an access to memory failed due to the cache being blocked (Count)
system.cpu.lsq0.loadToUse::samples          137985516                       # Distribution of cycle latency between the first time a load is issued and its completion (Unspecified)
system.cpu.lsq0.loadToUse::mean              3.356360                       # Distribution of cycle latency between the first time a load is issued and its completion (Unspecified)
system.cpu.lsq0.loadToUse::stdev             0.988324                       # Distribution of cycle latency between the first time a load is issued and its completion (Unspecified)
system.cpu.lsq0.loadToUse::0-9              137979844    100.00%    100.00% # Distribution of cycle latency between the first time a load is issued and its completion (Unspecified)
system.cpu.lsq0.loadToUse::10-19                  185      0.00%    100.00% # Distribution of cycle latency between the first time a load is issued and its completion (Unspecified)
system.cpu.lsq0.loadToUse::20-29                  268      0.00%    100.00% # Distribution of cycle latency between the first time a load is issued and its completion (Unspecified)
system.cpu.lsq0.loadToUse::30-39                   92      0.00%    100.00% # Distribution of cycle latency between the first time a load is issued and its completion (Unspecified)
system.cpu.lsq0.loadToUse::40-49                   20      0.00%    100.00% # Distribution of cycle latency between the first time a load is issued and its completion (Unspecified)
system.cpu.lsq0.loadToUse::50-59                   83      0.00%    100.00% # Distribution of cycle latency between the first time a load is issued and its completion (Unspecified)
system.cpu.lsq0.loadToUse::60-69                  223      0.00%    100.00% # Distribution of cycle latency between the first time a load is issued and its completion (Unspecified)
system.cpu.lsq0.loadToUse::70-79                  411      0.00%    100.00% # Distribution of cycle latency between the first time a load is issued and its completion (Unspecified)
system.cpu.lsq0.loadToUse::80-89                  174      0.00%    100.00% # Distribution of cycle latency between the first time a load is issued and its completion (Unspecified)
system.cpu.lsq0.loadToUse::90-99                  109      0.00%    100.00% # Distribution of cycle latency between the first time a load is issued and its completion (Unspecified)
system.cpu.lsq0.loadToUse::100-109                 55      0.00%    100.00% # Distribution of cycle latency between the first time a load is issued and its completion (Unspecified)
system.cpu.lsq0.loadToUse::110-119                205      0.00%    100.00% # Distribution of cycle latency between the first time a load is issued and its completion (Unspecified)
system.cpu.lsq0.loadToUse::120-129                532      0.00%    100.00% # Distribution of cycle latency between the first time a load is issued and its completion (Unspecified)
system.cpu.lsq0.loadToUse::130-139               2207      0.00%    100.00% # Distribution of cycle latency between the first time a load is issued and its completion (Unspecified)
system.cpu.lsq0.loadToUse::140-149                270      0.00%    100.00% # Distribution of cycle latency between the first time a load is issued and its completion (Unspecified)
system.cpu.lsq0.loadToUse::150-159                135      0.00%    100.00% # Distribution of cycle latency between the first time a load is issued and its completion (Unspecified)
[...]
system.mem_ctrl.requestorReadAvgLat::cpu.inst     26459.31                       # Per-requestor read average memory access latency ((Tick/Count))
system.mem_ctrl.requestorReadAvgLat::cpu.data     26238.67                       # Per-requestor read average memory access latency ((Tick/Count))
system.mem_ctrl.dram.bytesRead::cpu.inst        92416                       # Number of bytes read from this memory (Byte)
system.mem_ctrl.dram.bytesRead::cpu.data       121408                       # Number of bytes read from this memory (Byte)
system.mem_ctrl.dram.bytesRead::total          213824                       # Number of bytes read from this memory (Byte)
system.mem_ctrl.dram.bytesInstRead::cpu.inst        92416                       # Number of instructions bytes read from this memory (Byte)
system.mem_ctrl.dram.bytesInstRead::total        92416                       # Number of instructions bytes read from this memory (Byte)
system.mem_ctrl.dram.numReads::cpu.inst          1444                       # Number of read requests responded to by this memory (Count)
system.mem_ctrl.dram.numReads::cpu.data          1897                       # Number of read requests responded to by this memory (Count)
system.mem_ctrl.dram.numReads::total             3341                       # Number of read requests responded to by this memory (Count)
system.mem_ctrl.dram.bwRead::cpu.inst          297432                       # Total read bandwidth from this memory ((Byte/Second))
system.mem_ctrl.dram.bwRead::cpu.data          390740                       # Total read bandwidth from this memory ((Byte/Second))
system.mem_ctrl.dram.bwRead::total             688173                       # Total read bandwidth from this memory ((Byte/Second))
system.mem_ctrl.dram.bwInstRead::cpu.inst       297432                       # Instruction read bandwidth from this memory ((Byte/Second))
system.mem_ctrl.dram.bwInstRead::total         297432                       # Instruction read bandwidth from this memory ((Byte/Second))
system.mem_ctrl.dram.bwTotal::cpu.inst         297432                       # Total bandwidth to/from this memory ((Byte/Second))
system.mem_ctrl.dram.bwTotal::cpu.data         390740                       # Total bandwidth to/from this memory ((Byte/Second))
system.mem_ctrl.dram.bwTotal::total            688173                       # Total bandwidth to/from this memory ((Byte/Second))
system.mem_ctrl.dram.readBursts                  3341                       # Number of DRAM read bursts (Count)
system.mem_ctrl.dram.writeBursts                    0                       # Number of DRAM write bursts (Count)
system.mem_ctrl.dram.perBankRdBursts::0           220                       # Per bank write bursts (Count)
system.mem_ctrl.dram.perBankRdBursts::1           227                       # Per bank write bursts (Count)
system.mem_ctrl.dram.perBankRdBursts::2           185                       # Per bank write bursts (Count)
system.mem_ctrl.dram.perBankRdBursts::3           185                       # Per bank write bursts (Count)
system.mem_ctrl.dram.perBankRdBursts::4           212                       # Per bank write bursts (Count)
system.mem_ctrl.dram.perBankRdBursts::5           247                       # Per bank write bursts (Count)
system.mem_ctrl.dram.perBankRdBursts::6           222                       # Per bank write bursts (Count)
system.mem_ctrl.dram.perBankRdBursts::7           281                       # Per bank write bursts (Count)
system.mem_ctrl.dram.perBankRdBursts::8           153                       # Per bank write bursts (Count)
system.mem_ctrl.dram.perBankRdBursts::9           179                       # Per bank write bursts (Count)
system.mem_ctrl.dram.perBankRdBursts::10          166                       # Per bank write bursts (Count)
system.mem_ctrl.dram.perBankRdBursts::11          203                       # Per bank write bursts (Count)
system.mem_ctrl.dram.perBankRdBursts::12          216                       # Per bank write bursts (Count)
system.mem_ctrl.dram.perBankRdBursts::13          232                       # Per bank write bursts (Count)
system.mem_ctrl.dram.perBankRdBursts::14          179                       # Per bank write bursts (Count)
system.mem_ctrl.dram.perBankRdBursts::15          234                       # Per bank write bursts (Count)
system.mem_ctrl.dram.perBankWrBursts::0             0                       # Per bank write bursts (Count)
system.mem_ctrl.dram.perBankWrBursts::1             0                       # Per bank write bursts (Count)
system.mem_ctrl.dram.perBankWrBursts::2             0                       # Per bank write bursts (Count)
system.mem_ctrl.dram.perBankWrBursts::3             0                       # Per bank write bursts (Count)
system.mem_ctrl.dram.perBankWrBursts::4             0                       # Per bank write bursts (Count)
system.mem_ctrl.dram.perBankWrBursts::5             0                       # Per bank write bursts (Count)
system.mem_ctrl.dram.perBankWrBursts::6             0                       # Per bank write bursts (Count)
system.mem_ctrl.dram.perBankWrBursts::7             0                       # Per bank write bursts (Count)
system.mem_ctrl.dram.perBankWrBursts::8             0                       # Per bank write bursts (Count)
system.mem_ctrl.dram.perBankWrBursts::9             0                       # Per bank write bursts (Count)
system.mem_ctrl.dram.perBankWrBursts::10            0                       # Per bank write bursts (Count)
system.mem_ctrl.dram.perBankWrBursts::11            0                       # Per bank write bursts (Count)
system.mem_ctrl.dram.perBankWrBursts::12            0                       # Per bank write bursts (Count)
system.mem_ctrl.dram.perBankWrBursts::13            0                       # Per bank write bursts (Count)
system.mem_ctrl.dram.perBankWrBursts::14            0                       # Per bank write bursts (Count)
system.mem_ctrl.dram.perBankWrBursts::15            0                       # Per bank write bursts (Count)
system.mem_ctrl.dram.totQLat                 25338250                       # Total ticks spent queuing (Tick)
system.mem_ctrl.dram.totBusLat               16705000                       # Total ticks spent in databus transfers (Tick)
system.mem_ctrl.dram.totMemAccLat            87982000                       # Total ticks spent from burst creation until serviced by the DRAM (Tick)
system.mem_ctrl.dram.avgQLat                  7584.03                       # Average queueing delay per DRAM burst ((Tick/Count))
system.mem_ctrl.dram.avgBusLat                5000.00                       # Average bus latency per DRAM burst ((Tick/Count))
system.mem_ctrl.dram.avgMemAccLat            26334.03                       # Average memory access latency per DRAM burst ((Tick/Count))
system.mem_ctrl.dram.readRowHits                 2725                       # Number of row buffer hits during reads (Count)
system.mem_ctrl.dram.writeRowHits                   0                       # Number of row buffer hits during writes (Count)
system.mem_ctrl.dram.readRowHitRate             81.56                       # Row buffer hit rate for reads (Ratio)
system.mem_ctrl.dram.writeRowHitRate              nan                       # Row buffer hit rate for writes (Ratio)
system.mem_ctrl.dram.bytesPerActivate::samples          609                       # Bytes accessed per row activation (Byte)
system.mem_ctrl.dram.bytesPerActivate::mean   349.215107                       # Bytes accessed per row activation (Byte)
system.mem_ctrl.dram.bytesPerActivate::gmean   212.092399                       # Bytes accessed per row activation (Byte)
system.mem_ctrl.dram.bytesPerActivate::stdev   338.905700                       # Bytes accessed per row activation (Byte)
system.mem_ctrl.dram.bytesPerActivate::0-127          184     30.21%     30.21% # Bytes accessed per row activation (Byte)
system.mem_ctrl.dram.bytesPerActivate::128-255          152     24.96%     55.17% # Bytes accessed per row activation (Byte)
system.mem_ctrl.dram.bytesPerActivate::256-383           64     10.51%     65.68% # Bytes accessed per row activation (Byte)
system.mem_ctrl.dram.bytesPerActivate::384-511           40      6.57%     72.25% # Bytes accessed per row activation (Byte)
system.mem_ctrl.dram.bytesPerActivate::512-639           35      5.75%     78.00% # Bytes accessed per row activation (Byte)
system.mem_ctrl.dram.bytesPerActivate::640-767           26      4.27%     82.27% # Bytes accessed per row activation (Byte)
system.mem_ctrl.dram.bytesPerActivate::768-895           15      2.46%     84.73% # Bytes accessed per row activation (Byte)
system.mem_ctrl.dram.bytesPerActivate::896-1023           11      1.81%     86.54% # Bytes accessed per row activation (Byte)
system.mem_ctrl.dram.bytesPerActivate::1024-1151           82     13.46%    100.00% # Bytes accessed per row activation (Byte)
system.mem_ctrl.dram.bytesPerActivate::total          609                       # Bytes accessed per row activation (Byte)
system.mem_ctrl.dram.bytesRead                 213824                       # Total bytes read (Byte)
system.mem_ctrl.dram.bytesWritten                   0                       # Total bytes written (Byte)
system.mem_ctrl.dram.avgRdBW                 0.688173                       # Average DRAM read bandwidth in MiBytes/s ((Byte/Second))
system.mem_ctrl.dram.avgWrBW                        0                       # Average DRAM write bandwidth in MiBytes/s ((Byte/Second))
system.mem_ctrl.dram.peakBW                  12800.00                       # Theoretical peak bandwidth in MiByte/s ((Byte/Second))
system.mem_ctrl.dram.busUtil                     0.01                       # Data bus utilization in percentage (Ratio)
system.mem_ctrl.dram.busUtilRead                 0.01                       # Data bus utilization in percentage for reads (Ratio)
system.mem_ctrl.dram.busUtilWrite                0.00                       # Data bus utilization in percentage for writes (Ratio)
system.mem_ctrl.dram.pageHitRate                81.56                       # Row buffer hit rate, read and write combined (Ratio)
system.mem_ctrl.dram.power_state.pwrStateResidencyTicks::UNDEFINED 310712720000                       # Cumulative time (in ticks) in various power states (Tick)
system.mem_ctrl.dram.rank0.actEnergy          2713200                       # Energy for activate commands per rank (pJ) (Joule)
system.mem_ctrl.dram.rank0.preEnergy          1423125                       # Energy for precharge commands per rank (pJ) (Joule)
system.mem_ctrl.dram.rank0.readEnergy        12702060                       # Energy for read commands per rank (pJ) (Joule)
system.mem_ctrl.dram.rank0.writeEnergy              0                       # Energy for write commands per rank (pJ) (Joule)
system.mem_ctrl.dram.rank0.refreshEnergy 24527209200.000004                       # Energy for refresh commands per rank (pJ) (Joule)
system.mem_ctrl.dram.rank0.actBackEnergy   4572591300                       # Energy for active background per rank (pJ) (Joule)
system.mem_ctrl.dram.rank0.preBackEnergy 115463081280                       # Energy for precharge background per rank (pJ) (Joule)
system.mem_ctrl.dram.rank0.actPowerDownEnergy            0                       # Energy for active power-down per rank (pJ) (Joule)
system.mem_ctrl.dram.rank0.prePowerDownEnergy            0                       # Energy for precharge power-down per rank (pJ) (Joule)
system.mem_ctrl.dram.rank0.selfRefreshEnergy            0                       # Energy for self refresh per rank (pJ) (Joule)
system.mem_ctrl.dram.rank0.totalEnergy   144579720165                       # Total energy per rank (pJ) (Joule)
system.mem_ctrl.dram.rank0.averagePower    465.316387                       # Core power per rank (mW) (Watt)
system.mem_ctrl.dram.rank0.totalIdleTime            0                       # Total Idle time Per DRAM Rank (Tick)
system.mem_ctrl.dram.rank0.pwrStateTime::IDLE 300135925500                       # Time in different power states (Tick)
system.mem_ctrl.dram.rank0.pwrStateTime::REF  10375300000                       # Time in different power states (Tick)
system.mem_ctrl.dram.rank0.pwrStateTime::SREF            0                       # Time in different power states (Tick)
system.mem_ctrl.dram.rank0.pwrStateTime::PRE_PDN            0                       # Time in different power states (Tick)
system.mem_ctrl.dram.rank0.pwrStateTime::ACT    201494500                       # Time in different power states (Tick)
system.mem_ctrl.dram.rank0.pwrStateTime::ACT_PDN            0                       # Time in different power states (Tick)
system.mem_ctrl.dram.rank1.actEnergy          1685040                       # Energy for activate commands per rank (pJ) (Joule)
system.mem_ctrl.dram.rank1.preEnergy           888030                       # Energy for precharge commands per rank (pJ) (Joule)
system.mem_ctrl.dram.rank1.readEnergy        11152680                       # Energy for read commands per rank (pJ) (Joule)
system.mem_ctrl.dram.rank1.writeEnergy              0                       # Energy for write commands per rank (pJ) (Joule)
system.mem_ctrl.dram.rank1.refreshEnergy 24527209200.000004                       # Energy for refresh commands per rank (pJ) (Joule)
system.mem_ctrl.dram.rank1.actBackEnergy   4561218660                       # Energy for active background per rank (pJ) (Joule)
system.mem_ctrl.dram.rank1.preBackEnergy 115472658240                       # Energy for precharge background per rank (pJ) (Joule)
system.mem_ctrl.dram.rank1.actPowerDownEnergy            0                       # Energy for active power-down per rank (pJ) (Joule)
system.mem_ctrl.dram.rank1.prePowerDownEnergy            0                       # Energy for precharge power-down per rank (pJ) (Joule)
system.mem_ctrl.dram.rank1.selfRefreshEnergy            0                       # Energy for self refresh per rank (pJ) (Joule)
system.mem_ctrl.dram.rank1.totalEnergy   144574811850                       # Total energy per rank (pJ) (Joule)
system.mem_ctrl.dram.rank1.averagePower    465.300590                       # Core power per rank (mW) (Watt)
system.mem_ctrl.dram.rank1.totalIdleTime            0                       # Total Idle time Per DRAM Rank (Tick)
system.mem_ctrl.dram.rank1.pwrStateTime::IDLE 300160948000                       # Time in different power states (Tick)
system.mem_ctrl.dram.rank1.pwrStateTime::REF  10375300000                       # Time in different power states (Tick)
system.mem_ctrl.dram.rank1.pwrStateTime::SREF            0                       # Time in different power states (Tick)
system.mem_ctrl.dram.rank1.pwrStateTime::PRE_PDN            0                       # Time in different power states (Tick)
system.mem_ctrl.dram.rank1.pwrStateTime::ACT    176472000                       # Time in different power states (Tick)
system.mem_ctrl.dram.rank1.pwrStateTime::ACT_PDN            0                       # Time in different power states (Tick)
system.mem_ctrl.power_state.pwrStateResidencyTicks::UNDEFINED 310712720000                       # Cumulative time (in ticks) in various power states (Tick)
system.membus.transDist::ReadResp                2747                       # Transaction distribution (Count)
system.membus.transDist::ReadExReq                594                       # Transaction distribution (Count)
system.membus.transDist::ReadExResp               594                       # Transaction distribution (Count)
system.membus.transDist::ReadSharedReq           2747                       # Transaction distribution (Count)
system.membus.pktCount_system.l2cache.mem_side_port::system.mem_ctrl.port         6682                       # Packet count per connected requestor and responder (Count)
system.membus.pktCount_system.l2cache.mem_side_port::total         6682                       # Packet count per connected requestor and responder (Count)
system.membus.pktCount::total                    6682                       # Packet count per connected requestor and responder (Count)
system.membus.pktSize_system.l2cache.mem_side_port::system.mem_ctrl.port       213824                       # Cumulative packet size per connected requestor and responder (Byte)
system.membus.pktSize_system.l2cache.mem_side_port::total       213824                       # Cumulative packet size per connected requestor and responder (Byte)
system.membus.pktSize::total                   213824                       # Cumulative packet size per connected requestor and responder (Byte)
system.membus.snoops                                0                       # Total snoops (Count)
system.membus.snoopTraffic                          0                       # Total snoop traffic (Byte)
system.membus.snoopFanout::samples               3341                       # Request fanout histogram (Count)
system.membus.snoopFanout::mean                     0                       # Request fanout histogram (Count)
system.membus.snoopFanout::stdev                    0                       # Request fanout histogram (Count)
system.membus.snoopFanout::underflows               0      0.00%      0.00% # Request fanout histogram (Count)
system.membus.snoopFanout::0                     3341    100.00%    100.00% # Request fanout histogram (Count)
system.membus.snoopFanout::1                        0      0.00%    100.00% # Request fanout histogram (Count)
system.membus.snoopFanout::overflows                0      0.00%    100.00% # Request fanout histogram (Count)
system.membus.snoopFanout::min_value                0                       # Request fanout histogram (Count)
system.membus.snoopFanout::max_value                0                       # Request fanout histogram (Count)
system.membus.snoopFanout::total                 3341                       # Request fanout histogram (Count)
system.membus.power_state.pwrStateResidencyTicks::UNDEFINED 310712720000                       # Cumulative time (in ticks) in various power states (Tick)
system.membus.reqLayer2.occupancy             1670500                       # Layer occupancy (ticks) (Tick)
system.membus.reqLayer2.utilization               0.0                       # Layer utilization (Ratio)
system.membus.respLayer0.occupancy            9091500                       # Layer occupancy (ticks) (Tick)
system.membus.respLayer0.utilization              0.0                       # Layer utilization (Ratio)
system.membus.snoop_filter.totRequests           3341                       # Total number of requests made to the snoop filter. (Count)
system.membus.snoop_filter.hitSingleRequests            0                       # Number of requests hitting in the snoop filter with a single holder of the requested data. (Count)
system.membus.snoop_filter.hitMultiRequests            0                       # Number of requests hitting in the snoop filter with multiple (>1) holders of the requested data. (Count)
system.membus.snoop_filter.totSnoops                0                       # Total number of snoops made to the snoop filter. (Count)
system.membus.snoop_filter.hitSingleSnoops            0                       # Number of snoops hitting in the snoop filter with a single holder of the requested data. (Count)
system.membus.snoop_filter.hitMultiSnoops            0                       # Number of snoops hitting in the snoop filter with multiple (>1) holders of the requested data. (Count)
system.workload.inst.arm                            0                       # number of arm instructions executed (Count)
system.workload.inst.quiesce                        0                       # number of quiesce instructions executed (Count)

---------- End Simulation Statistics   ----------
