
---------- Begin Simulation Statistics ----------
simSeconds                                   0.259945                       # Number of seconds simulated (Second)
simTicks                                 259944671000                       # Number of ticks simulated (Tick)
finalTick                                259944671000                       # Number of ticks from beginning of simulation (restored from checkpoints and never reset) (Tick)
simFreq                                  1000000000000                       # The number of ticks per simulated second ((Tick/Second))
hostSeconds                                  13874.59                       # Real time elapsed on the host (Second)
hostTickRate                                 18735311                       # The number of ticks simulated per host second (ticks/s) ((Tick/Second))
hostMemory                                    1204352                       # Number of bytes of host memory used (Byte)
simInsts                                    685048767                       # Number of instructions simulated (Count)
simOps                                     1324124270                       # Number of ops (including micro ops) simulated (Count)
hostInstRate                                    49374                       # Simulator instruction rate (inst/s) ((Count/Second))
hostOpRate                                      95435                       # Simulator op (including micro ops) rate (op/s) ((Count/Second))
system.clk_domain.clock                           500                       # Clock period in ticks (Tick)
system.clk_domain.voltage_domain.voltage            1                       # Voltage in Volts (Volt)
system.cpu.numCycles                        401928443                       # Number of cpu cycles simulated (Cycle)
system.cpu.numWorkItemsStarted                      0                       # Number of work items this cpu started (Count)
system.cpu.numWorkItemsCompleted                    0                       # Number of work items this cpu completed (Count)
system.cpu.instsAdded                      1473403843                       # Number of instructions added to the IQ (excludes non-spec) (Count)
system.cpu.nonSpecInstsAdded                       19                       # Number of non-speculative instructions added to the IQ (Count)
system.cpu.instsIssued                     1445702177                       # Number of instructions issued (Count)
system.cpu.squashedInstsIssued                  11134                       # Number of squashed instructions issued (Count)
system.cpu.squashedInstsExamined            149279586                       # Number of squashed instructions iterated over during squash; mainly for profiling (Count)
system.cpu.squashedOperandsExamined         165245583                       # Number of squashed operands that are examined and possibly removed from graph (Count)
system.cpu.squashedNonSpecRemoved                   1                       # Number of squashed non-spec instructions that were removed (Count)
system.cpu.numIssuedDist::samples           401387919                       # Number of insts issued each cycle (Count)
system.cpu.numIssuedDist::mean               3.601758                       # Number of insts issued each cycle (Count)
system.cpu.numIssuedDist::stdev              2.584209                       # Number of insts issued each cycle (Count)
system.cpu.numIssuedDist::underflows                0      0.00%      0.00% # Number of insts issued each cycle (Count)
system.cpu.numIssuedDist::0                  68565447     17.08%     17.08% # Number of insts issued each cycle (Count)
system.cpu.numIssuedDist::1                  48624749     12.11%     29.20% # Number of insts issued each cycle (Count)
system.cpu.numIssuedDist::2                  32973354      8.21%     37.41% # Number of insts issued each cycle (Count)
system.cpu.numIssuedDist::3                  42892525     10.69%     48.10% # Number of insts issued each cycle (Count)
system.cpu.numIssuedDist::4                  46926242     11.69%     59.79% # Number of insts issued each cycle (Count)
system.cpu.numIssuedDist::5                  49160735     12.25%     72.04% # Number of insts issued each cycle (Count)
system.cpu.numIssuedDist::6                  46374439     11.55%     83.59% # Number of insts issued each cycle (Count)
system.cpu.numIssuedDist::7                  36265556      9.04%     92.62% # Number of insts issued each cycle (Count)
system.cpu.numIssuedDist::8                  29604872      7.38%    100.00% # Number of insts issued each cycle (Count)
system.cpu.numIssuedDist::overflows                 0      0.00%    100.00% # Number of insts issued each cycle (Count)
system.cpu.numIssuedDist::min_value                 0                       # Number of insts issued each cycle (Count)
system.cpu.numIssuedDist::max_value                 8                       # Number of insts issued each cycle (Count)
system.cpu.numIssuedDist::total             401387919                       # Number of insts issued each cycle (Count)
system.cpu.statFuBusy::No_OpClass                   0      0.00%      0.00% # attempts to use FU when none available (Count)
system.cpu.statFuBusy::IntAlu                15990637     98.43%     98.43% # attempts to use FU when none available (Count)
system.cpu.statFuBusy::IntMult                      0      0.00%     98.43% # attempts to use FU when none available (Count)
system.cpu.statFuBusy::IntDiv                       0      0.00%     98.43% # attempts to use FU when none available (Count)
system.cpu.statFuBusy::FloatAdd                     0      0.00%     98.43% # attempts to use FU when none available (Count)
system.cpu.statFuBusy::FloatCmp                     0      0.00%     98.43% # attempts to use FU when none available (Count)
system.cpu.statFuBusy::FloatCvt                     0      0.00%     98.43% # attempts to use FU when none available (Count)
system.cpu.statFuBusy::FloatMult                    0      0.00%     98.43% # attempts to use FU when none available (Count)
system.cpu.statFuBusy::FloatMultAcc                 0      0.00%     98.43% # attempts to use FU when none available (Count)
system.cpu.statFuBusy::FloatDiv                     0      0.00%     98.43% # attempts to use FU when none available (Count)
system.cpu.statFuBusy::FloatMisc                    0      0.00%     98.43% # attempts to use FU when none available (Count)
system.cpu.statFuBusy::FloatSqrt                    0      0.00%     98.43% # attempts to use FU when none available (Count)
system.cpu.statFuBusy::SimdAdd                      1      0.00%     98.43% # attempts to use FU when none available (Count)
system.cpu.statFuBusy::SimdAddAcc                   0      0.00%     98.43% # attempts to use FU when none available (Count)
system.cpu.statFuBusy::SimdAlu                     16      0.00%     98.43% # attempts to use FU when none available (Count)
system.cpu.statFuBusy::SimdCmp                      0      0.00%     98.43% # attempts to use FU when none available (Count)
system.cpu.statFuBusy::SimdCvt                     20      0.00%     98.43% # attempts to use FU when none available (Count)
system.cpu.statFuBusy::SimdMisc                     3      0.00%     98.43% # attempts to use FU when none available (Count)
system.cpu.statFuBusy::SimdMult                     0      0.00%     98.43% # attempts to use FU when none available (Count)
system.cpu.statFuBusy::SimdMultAcc                  0      0.00%     98.43% # attempts to use FU when none available (Count)
system.cpu.statFuBusy::SimdShift                    2      0.00%     98.43% # attempts to use FU when none available (Count)
system.cpu.statFuBusy::SimdShiftAcc                 0      0.00%     98.43% # attempts to use FU when none available (Count)
system.cpu.statFuBusy::SimdDiv                      0      0.00%     98.43% # attempts to use FU when none available (Count)
system.cpu.statFuBusy::SimdSqrt                     0      0.00%     98.43% # attempts to use FU when none available (Count)
system.cpu.statFuBusy::SimdFloatAdd                 0      0.00%     98.43% # attempts to use FU when none available (Count)
system.cpu.statFuBusy::SimdFloatAlu                 0      0.00%     98.43% # attempts to use FU when none available (Count)
system.cpu.statFuBusy::SimdFloatCmp                 0      0.00%     98.43% # attempts to use FU when none available (Count)
system.cpu.statFuBusy::SimdFloatCvt                 0      0.00%     98.43% # attempts to use FU when none available (Count)
system.cpu.statFuBusy::SimdFloatDiv                 0      0.00%     98.43% # attempts to use FU when none available (Count)
system.cpu.statFuBusy::SimdFloatMisc                0      0.00%     98.43% # attempts to use FU when none available (Count)
system.cpu.statFuBusy::SimdFloatMult                0      0.00%     98.43% # attempts to use FU when none available (Count)
system.cpu.statFuBusy::SimdFloatMultAcc             0      0.00%     98.43% # attempts to use FU when none available (Count)
system.cpu.statFuBusy::SimdFloatSqrt                0      0.00%     98.43% # attempts to use FU when none available (Count)
system.cpu.statFuBusy::SimdReduceAdd                0      0.00%     98.43% # attempts to use FU when none available (Count)
system.cpu.statFuBusy::SimdReduceAlu                0      0.00%     98.43% # attempts to use FU when none available (Count)
system.cpu.statFuBusy::SimdReduceCmp                0      0.00%     98.43% # attempts to use FU when none available (Count)
system.cpu.statFuBusy::SimdFloatReduceAdd            0      0.00%     98.43% # attempts to use FU when none available (Count)
system.cpu.statFuBusy::SimdFloatReduceCmp            0      0.00%     98.43% # attempts to use FU when none available (Count)
system.cpu.statFuBusy::SimdAes                      0      0.00%     98.43% # attempts to use FU when none available (Count)
system.cpu.statFuBusy::SimdAesMix                   0      0.00%     98.43% # attempts to use FU when none available (Count)
system.cpu.statFuBusy::SimdSha1Hash                 0      0.00%     98.43% # attempts to use FU when none available (Count)
system.cpu.statFuBusy::SimdSha1Hash2                0      0.00%     98.43% # attempts to use FU when none available (Count)
system.cpu.statFuBusy::SimdSha256Hash               0      0.00%     98.43% # attempts to use FU when none available (Count)
system.cpu.statFuBusy::SimdSha256Hash2              0      0.00%     98.43% # attempts to use FU when none available (Count)
system.cpu.statFuBusy::SimdShaSigma2                0      0.00%     98.43% # attempts to use FU when none available (Count)
system.cpu.statFuBusy::SimdShaSigma3                0      0.00%     98.43% # attempts to use FU when none available (Count)
system.cpu.statFuBusy::SimdPredAlu                  0      0.00%     98.43% # attempts to use FU when none available (Count)
system.cpu.statFuBusy::MemRead                  27998      0.17%     98.60% # attempts to use FU when none available (Count)
system.cpu.statFuBusy::MemWrite                227610      1.40%    100.00% # attempts to use FU when none available (Count)
system.cpu.statFuBusy::FloatMemRead                24      0.00%    100.00% # attempts to use FU when none available (Count)
system.cpu.statFuBusy::FloatMemWrite               31      0.00%    100.00% # attempts to use FU when none available (Count)
system.cpu.statFuBusy::IprAccess                    0      0.00%    100.00% # attempts to use FU when none available (Count)
system.cpu.statFuBusy::InstPrefetch                 0      0.00%    100.00% # attempts to use FU when none available (Count)
system.cpu.statIssuedInstType_0::No_OpClass     20488967      1.42%      1.42% # Number of instructions issued per FU type, per thread (Count)
system.cpu.statIssuedInstType_0::IntAlu    1098849798     76.01%     77.43% # Number of instructions issued per FU type, per thread (Count)
system.cpu.statIssuedInstType_0::IntMult        65333      0.00%     77.43% # Number of instructions issued per FU type, per thread (Count)
system.cpu.statIssuedInstType_0::IntDiv        200333      0.01%     77.44% # Number of instructions issued per FU type, per thread (Count)
system.cpu.statIssuedInstType_0::FloatAdd        29003      0.00%     77.45% # Number of instructions issued per FU type, per thread (Count)
system.cpu.statIssuedInstType_0::FloatCmp            0      0.00%     77.45% # Number of instructions issued per FU type, per thread (Count)
system.cpu.statIssuedInstType_0::FloatCvt           32      0.00%     77.45% # Number of instructions issued per FU type, per thread (Count)
system.cpu.statIssuedInstType_0::FloatMult            0      0.00%     77.45% # Number of instructions issued per FU type, per thread (Count)
system.cpu.statIssuedInstType_0::FloatMultAcc            0      0.00%     77.45% # Number of instructions issued per FU type, per thread (Count)
system.cpu.statIssuedInstType_0::FloatDiv            0      0.00%     77.45% # Number of instructions issued per FU type, per thread (Count)
system.cpu.statIssuedInstType_0::FloatMisc            0      0.00%     77.45% # Number of instructions issued per FU type, per thread (Count)
system.cpu.statIssuedInstType_0::FloatSqrt            0      0.00%     77.45% # Number of instructions issued per FU type, per thread (Count)
system.cpu.statIssuedInstType_0::SimdAdd          474      0.00%     77.45% # Number of instructions issued per FU type, per thread (Count)
system.cpu.statIssuedInstType_0::SimdAddAcc            0      0.00%     77.45% # Number of instructions issued per FU type, per thread (Count)
system.cpu.statIssuedInstType_0::SimdAlu       114868      0.01%     77.45% # Number of instructions issued per FU type, per thread (Count)
system.cpu.statIssuedInstType_0::SimdCmp            0      0.00%     77.45% # Number of instructions issued per FU type, per thread (Count)
system.cpu.statIssuedInstType_0::SimdCvt       114796      0.01%     77.46% # Number of instructions issued per FU type, per thread (Count)
system.cpu.statIssuedInstType_0::SimdMisc       256708      0.02%     77.48% # Number of instructions issued per FU type, per thread (Count)
system.cpu.statIssuedInstType_0::SimdMult            0      0.00%     77.48% # Number of instructions issued per FU type, per thread (Count)
system.cpu.statIssuedInstType_0::SimdMultAcc            0      0.00%     77.48% # Number of instructions issued per FU type, per thread (Count)
system.cpu.statIssuedInstType_0::SimdShift          326      0.00%     77.48% # Number of instructions issued per FU type, per thread (Count)
system.cpu.statIssuedInstType_0::SimdShiftAcc            0      0.00%     77.48% # Number of instructions issued per FU type, per thread (Count)
system.cpu.statIssuedInstType_0::SimdDiv            0      0.00%     77.48% # Number of instructions issued per FU type, per thread (Count)
system.cpu.statIssuedInstType_0::SimdSqrt            0      0.00%     77.48% # Number of instructions issued per FU type, per thread (Count)
system.cpu.statIssuedInstType_0::SimdFloatAdd            0      0.00%     77.48% # Number of instructions issued per FU type, per thread (Count)
system.cpu.statIssuedInstType_0::SimdFloatAlu            0      0.00%     77.48% # Number of instructions issued per FU type, per thread (Count)
system.cpu.statIssuedInstType_0::SimdFloatCmp            0      0.00%     77.48% # Number of instructions issued per FU type, per thread (Count)
system.cpu.statIssuedInstType_0::SimdFloatCvt            0      0.00%     77.48% # Number of instructions issued per FU type, per thread (Count)
system.cpu.statIssuedInstType_0::SimdFloatDiv            0      0.00%     77.48% # Number of instructions issued per FU type, per thread (Count)
system.cpu.statIssuedInstType_0::SimdFloatMisc            0      0.00%     77.48% # Number of instructions issued per FU type, per thread (Count)
system.cpu.statIssuedInstType_0::SimdFloatMult            0      0.00%     77.48% # Number of instructions issued per FU type, per thread (Count)
system.cpu.statIssuedInstType_0::SimdFloatMultAcc            0      0.00%     77.48% # Number of instructions issued per FU type, per thread (Count)
system.cpu.statIssuedInstType_0::SimdFloatSqrt            0      0.00%     77.48% # Number of instructions issued per FU type, per thread (Count)
system.cpu.statIssuedInstType_0::SimdReduceAdd            0      0.00%     77.48% # Number of instructions issued per FU type, per thread (Count)
system.cpu.statIssuedInstType_0::SimdReduceAlu            0      0.00%     77.48% # Number of instructions issued per FU type, per thread (Count)
system.cpu.statIssuedInstType_0::SimdReduceCmp            0      0.00%     77.48% # Number of instructions issued per FU type, per thread (Count)
system.cpu.statIssuedInstType_0::SimdFloatReduceAdd            0      0.00%     77.48% # Number of instructions issued per FU type, per thread (Count)
system.cpu.statIssuedInstType_0::SimdFloatReduceCmp            0      0.00%     77.48% # Number of instructions issued per FU type, per thread (Count)
system.cpu.statIssuedInstType_0::SimdAes            0      0.00%     77.48% # Number of instructions issued per FU type, per thread (Count)
system.cpu.statIssuedInstType_0::SimdAesMix            0      0.00%     77.48% # Number of instructions issued per FU type, per thread (Count)
system.cpu.statIssuedInstType_0::SimdSha1Hash            0      0.00%     77.48% # Number of instructions issued per FU type, per thread (Count)
system.cpu.statIssuedInstType_0::SimdSha1Hash2            0      0.00%     77.48% # Number of instructions issued per FU type, per thread (Count)
system.cpu.statIssuedInstType_0::SimdSha256Hash            0      0.00%     77.48% # Number of instructions issued per FU type, per thread (Count)
system.cpu.statIssuedInstType_0::SimdSha256Hash2            0      0.00%     77.48% # Number of instructions issued per FU type, per thread (Count)
system.cpu.statIssuedInstType_0::SimdShaSigma2            0      0.00%     77.48% # Number of instructions issued per FU type, per thread (Count)
system.cpu.statIssuedInstType_0::SimdShaSigma3            0      0.00%     77.48% # Number of instructions issued per FU type, per thread (Count)
system.cpu.statIssuedInstType_0::SimdPredAlu            0      0.00%     77.48% # Number of instructions issued per FU type, per thread (Count)
system.cpu.statIssuedInstType_0::MemRead    223378422     15.45%     92.93% # Number of instructions issued per FU type, per thread (Count)
system.cpu.statIssuedInstType_0::MemWrite    102071950      7.06%     99.99% # Number of instructions issued per FU type, per thread (Count)
system.cpu.statIssuedInstType_0::FloatMemRead       101340      0.01%    100.00% # Number of instructions issued per FU type, per thread (Count)
system.cpu.statIssuedInstType_0::FloatMemWrite        29827      0.00%    100.00% # Number of instructions issued per FU type, per thread (Count)
system.cpu.statIssuedInstType_0::IprAccess            0      0.00%    100.00% # Number of instructions issued per FU type, per thread (Count)
system.cpu.statIssuedInstType_0::InstPrefetch            0      0.00%    100.00% # Number of instructions issued per FU type, per thread (Count)
system.cpu.statIssuedInstType_0::total     1445702177                       # Number of instructions issued per FU type, per thread (Count)
system.cpu.issueRate                         3.596914                       # Inst issue rate ((Count/Cycle))
system.cpu.fuBusy                            16246342                       # FU busy when requested (Count)
system.cpu.fuBusyRate                        0.011238                       # FU busy rate (busy events/executed inst) ((Count/Count))
system.cpu.intInstQueueReads               3307583726                       # Number of integer instruction queue reads (Count)
system.cpu.intInstQueueWrites              1621963155                       # Number of integer instruction queue writes (Count)
system.cpu.intInstQueueWakeupAccesses      1429157781                       # Number of integer instruction queue wakeup accesses (Count)
system.cpu.fpInstQueueReads                   1466023                       # Number of floating instruction queue reads (Count)
system.cpu.fpInstQueueWrites                   726215                       # Number of floating instruction queue writes (Count)
system.cpu.fpInstQueueWakeupAccesses           718111                       # Number of floating instruction queue wakeup accesses (Count)
system.cpu.vecInstQueueReads                        0                       # Number of vector instruction queue reads (Count)
system.cpu.vecInstQueueWrites                       0                       # Number of vector instruction queue writes (Count)
system.cpu.vecInstQueueWakeupAccesses               0                       # Number of vector instruction queue wakeup accesses (Count)
system.cpu.intAluAccesses                  1440726515                       # Number of integer alu accesses (Count)
system.cpu.fpAluAccesses                       733037                       # Number of floating point alu accesses (Count)
system.cpu.vecAluAccesses                           0                       # Number of vector alu accesses (Count)
system.cpu.numInsts                        1432760559                       # Number of executed instructions (Count)
system.cpu.numLoadInsts                     219417198                       # Number of load instructions executed (Count)
system.cpu.numSquashedInsts                  12941618                       # Number of squashed instructions skipped in execute (Count)
system.cpu.numSwp                                   0                       # Number of swp insts executed (Count)
system.cpu.numNop                                   0                       # Number of nop insts executed (Count)
system.cpu.numRefs                          320603622                       # Number of memory reference insts executed (Count)
system.cpu.numBranches                      148904005                       # Number of branches executed (Count)
system.cpu.numStoreInsts                    101186424                       # Number of stores executed (Count)
system.cpu.numRate                           3.564716                       # Inst execution rate ((Count/Cycle))
system.cpu.timesIdled                          118047                       # Number of times that the entire CPU went into an idle state and unscheduled itself (Count)
system.cpu.idleCycles                          540524                       # Total number of cycles that the CPU has spent unscheduled due to idling (Cycle)
system.cpu.quiesceCycles                    117960900                       # Total number of cycles that CPU has spent quiesced or waiting for an interrupt (Cycle)
system.cpu.committedInsts                   685048767                       # Number of Instructions Simulated (Count)
system.cpu.committedOps                    1324124270                       # Number of Ops (including micro ops) Simulated (Count)
system.cpu.cpi                               0.586715                       # CPI: Cycles Per Instruction ((Cycle/Count))
system.cpu.totalCpi                          0.586715                       # CPI: Total CPI of All Threads ((Cycle/Count))
system.cpu.ipc                               1.704405                       # IPC: Instructions Per Cycle ((Count/Cycle))
system.cpu.totalIpc                          1.704405                       # IPC: Total IPC of All Threads ((Count/Cycle))
system.cpu.intRegfileReads                 1647585030                       # Number of integer regfile reads (Count)
system.cpu.intRegfileWrites                1048413470                       # Number of integer regfile writes (Count)
system.cpu.fpRegfileReads                     1261053                       # Number of floating regfile reads (Count)
system.cpu.fpRegfileWrites                     631043                       # Number of floating regfile writes (Count)
system.cpu.ccRegfileReads                   672173671                       # number of cc regfile reads (Count)
system.cpu.ccRegfileWrites                  448995063                       # number of cc regfile writes (Count)
system.cpu.miscRegfileReads                 646413417                       # number of misc regfile reads (Count)
system.cpu.miscRegfileWrites                       18                       # number of misc regfile writes (Count)
system.cpu.MemDepUnit__0.insertedLoads      227647726                       # Number of loads inserted to the mem dependence unit. (Count)
system.cpu.MemDepUnit__0.insertedStores     104926367                       # Number of stores inserted to the mem dependence unit. (Count)
system.cpu.MemDepUnit__0.conflictingLoads     13693675                       # Number of conflicting loads. (Count)
system.cpu.MemDepUnit__0.conflictingStores      8641206                       # Number of conflicting stores. (Count)
system.cpu.MemDepUnit__1.insertedLoads              0                       # Number of loads inserted to the mem dependence unit. (Count)
system.cpu.MemDepUnit__1.insertedStores             0                       # Number of stores inserted to the mem dependence unit. (Count)
system.cpu.MemDepUnit__1.conflictingLoads            0                       # Number of conflicting loads. (Count)
system.cpu.MemDepUnit__1.conflictingStores            0                       # Number of conflicting stores. (Count)
system.cpu.MemDepUnit__2.insertedLoads              0                       # Number of loads inserted to the mem dependence unit. (Count)
system.cpu.MemDepUnit__2.insertedStores             0                       # Number of stores inserted to the mem dependence unit. (Count)
system.cpu.MemDepUnit__2.conflictingLoads            0                       # Number of conflicting loads. (Count)
system.cpu.MemDepUnit__2.conflictingStores            0                       # Number of conflicting stores. (Count)
system.cpu.MemDepUnit__3.insertedLoads              0                       # Number of loads inserted to the mem dependence unit. (Count)
system.cpu.MemDepUnit__3.insertedStores             0                       # Number of stores inserted to the mem dependence unit. (Count)
system.cpu.MemDepUnit__3.conflictingLoads            0                       # Number of conflicting loads. (Count)
system.cpu.MemDepUnit__3.conflictingStores            0                       # Number of conflicting stores. (Count)
system.cpu.branchPred.lookups               164448034                       # Number of BP lookups (Count)
system.cpu.branchPred.condPredicted         129629036                       # Number of conditional branches predicted (Count)
system.cpu.branchPred.condIncorrect           6509553                       # Number of conditional branches incorrect (Count)
system.cpu.branchPred.BTBLookups             63623709                       # Number of BTB lookups (Count)
system.cpu.branchPred.BTBUpdates              2422005                       # Number of BTB updates (Count)
system.cpu.branchPred.BTBHits                63393331                       # Number of BTB hits (Count)
system.cpu.branchPred.BTBHitRatio            0.996379                       # BTB Hit Ratio (Ratio)
system.cpu.branchPred.RASUsed                11536325                       # Number of times the RAS was used to get a target. (Count)
system.cpu.branchPred.RASIncorrect                879                       # Number of incorrect RAS predictions. (Count)
system.cpu.branchPred.indirectLookups         9523994                       # Number of indirect predictor lookups. (Count)
system.cpu.branchPred.indirectHits            9517737                       # Number of indirect target hits. (Count)
system.cpu.branchPred.indirectMisses             6257                       # Number of indirect misses. (Count)
system.cpu.branchPred.indirectMispredicted        28773                       # Number of mispredicted indirect branches. (Count)
system.cpu.commit.commitSquashedInsts       141180695                       # The number of squashed insts skipped by commit (Count)
system.cpu.commit.commitNonSpecStalls              18                       # The number of times commit has been forced to stall to communicate backwards (Count)
system.cpu.commit.branchMispredicts           6466733                       # The number of times a branch was mispredicted (Count)
system.cpu.commit.numCommittedDist::samples    380322431                       # Number of insts commited each cycle (Count)
system.cpu.commit.numCommittedDist::mean     3.481583                       # Number of insts commited each cycle (Count)
system.cpu.commit.numCommittedDist::stdev     3.258183                       # Number of insts commited each cycle (Count)
system.cpu.commit.numCommittedDist::underflows            0      0.00%      0.00% # Number of insts commited each cycle (Count)
system.cpu.commit.numCommittedDist::0       106915972     28.11%     28.11% # Number of insts commited each cycle (Count)
system.cpu.commit.numCommittedDist::1        54711646     14.39%     42.50% # Number of insts commited each cycle (Count)
system.cpu.commit.numCommittedDist::2        21351148      5.61%     48.11% # Number of insts commited each cycle (Count)
system.cpu.commit.numCommittedDist::3        44535773     11.71%     59.82% # Number of insts commited each cycle (Count)
system.cpu.commit.numCommittedDist::4        10818269      2.84%     62.67% # Number of insts commited each cycle (Count)
system.cpu.commit.numCommittedDist::5        18864365      4.96%     67.63% # Number of insts commited each cycle (Count)
system.cpu.commit.numCommittedDist::6        12106612      3.18%     70.81% # Number of insts commited each cycle (Count)
system.cpu.commit.numCommittedDist::7         5280732      1.39%     72.20% # Number of insts commited each cycle (Count)
system.cpu.commit.numCommittedDist::8       105737914     27.80%    100.00% # Number of insts commited each cycle (Count)
system.cpu.commit.numCommittedDist::overflows            0      0.00%    100.00% # Number of insts commited each cycle (Count)
system.cpu.commit.numCommittedDist::min_value            0                       # Number of insts commited each cycle (Count)
system.cpu.commit.numCommittedDist::max_value            8                       # Number of insts commited each cycle (Count)
system.cpu.commit.numCommittedDist::total    380322431                       # Number of insts commited each cycle (Count)
system.cpu.commit.instsCommitted            685048767                       # Number of instructions committed (Count)
system.cpu.commit.opsCommitted             1324124270                       # Number of ops (including micro ops) committed (Count)
system.cpu.commit.memRefs                   305030173                       # Number of memory references committed (Count)
system.cpu.commit.loads                     209682612                       # Number of loads committed (Count)
system.cpu.commit.amos                              0                       # Number of atomic instructions committed (Count)
system.cpu.commit.membars                           0                       # Number of memory barriers committed (Count)
system.cpu.commit.branches                  141580954                       # Number of branches committed (Count)
system.cpu.commit.vectorInstructions                0                       # Number of committed Vector instructions. (Count)
system.cpu.commit.floating                     715699                       # Number of committed floating point instructions. (Count)
system.cpu.commit.integer                  1303634564                       # Number of committed integer instructions. (Count)
system.cpu.commit.functionCalls              10328377                       # Number of function calls committed. (Count)
system.cpu.commit.committedInstType_0::No_OpClass     19047485      1.44%      1.44% # Class of committed instruction (Count)
system.cpu.commit.committedInstType_0::IntAlu    999271971     75.47%     76.91% # Class of committed instruction (Count)
system.cpu.commit.committedInstType_0::IntMult        59919      0.00%     76.91% # Class of committed instruction (Count)
system.cpu.commit.committedInstType_0::IntDiv       200198      0.02%     76.92% # Class of committed instruction (Count)
system.cpu.commit.committedInstType_0::FloatAdd        28795      0.00%     76.93% # Class of committed instruction (Count)
system.cpu.commit.committedInstType_0::FloatCmp            0      0.00%     76.93% # Class of committed instruction (Count)
system.cpu.commit.committedInstType_0::FloatCvt           32      0.00%     76.93% # Class of committed instruction (Count)
system.cpu.commit.committedInstType_0::FloatMult            0      0.00%     76.93% # Class of committed instruction (Count)
system.cpu.commit.committedInstType_0::FloatMultAcc            0      0.00%     76.93% # Class of committed instruction (Count)
system.cpu.commit.committedInstType_0::FloatDiv            0      0.00%     76.93% # Class of committed instruction (Count)
system.cpu.commit.committedInstType_0::FloatMisc            0      0.00%     76.93% # Class of committed instruction (Count)
system.cpu.commit.committedInstType_0::FloatSqrt            0      0.00%     76.93% # Class of committed instruction (Count)
system.cpu.commit.committedInstType_0::SimdAdd          350      0.00%     76.93% # Class of committed instruction (Count)
system.cpu.commit.committedInstType_0::SimdAddAcc            0      0.00%     76.93% # Class of committed instruction (Count)
system.cpu.commit.committedInstType_0::SimdAlu       114332      0.01%     76.94% # Class of committed instruction (Count)
system.cpu.commit.committedInstType_0::SimdCmp            0      0.00%     76.94% # Class of committed instruction (Count)
system.cpu.commit.committedInstType_0::SimdCvt       114394      0.01%     76.94% # Class of committed instruction (Count)
system.cpu.commit.committedInstType_0::SimdMisc       256518      0.02%     76.96% # Class of committed instruction (Count)
system.cpu.commit.committedInstType_0::SimdMult            0      0.00%     76.96% # Class of committed instruction (Count)
system.cpu.commit.committedInstType_0::SimdMultAcc            0      0.00%     76.96% # Class of committed instruction (Count)
system.cpu.commit.committedInstType_0::SimdShift          103      0.00%     76.96% # Class of committed instruction (Count)
system.cpu.commit.committedInstType_0::SimdShiftAcc            0      0.00%     76.96% # Class of committed instruction (Count)
system.cpu.commit.committedInstType_0::SimdDiv            0      0.00%     76.96% # Class of committed instruction (Count)
system.cpu.commit.committedInstType_0::SimdSqrt            0      0.00%     76.96% # Class of committed instruction (Count)
system.cpu.commit.committedInstType_0::SimdFloatAdd            0      0.00%     76.96% # Class of committed instruction (Count)
system.cpu.commit.committedInstType_0::SimdFloatAlu            0      0.00%     76.96% # Class of committed instruction (Count)
system.cpu.commit.committedInstType_0::SimdFloatCmp            0      0.00%     76.96% # Class of committed instruction (Count)
system.cpu.commit.committedInstType_0::SimdFloatCvt            0      0.00%     76.96% # Class of committed instruction (Count)
system.cpu.commit.committedInstType_0::SimdFloatDiv            0      0.00%     76.96% # Class of committed instruction (Count)
system.cpu.commit.committedInstType_0::SimdFloatMisc            0      0.00%     76.96% # Class of committed instruction (Count)
system.cpu.commit.committedInstType_0::SimdFloatMult            0      0.00%     76.96% # Class of committed instruction (Count)
system.cpu.commit.committedInstType_0::SimdFloatMultAcc            0      0.00%     76.96% # Class of committed instruction (Count)
system.cpu.commit.committedInstType_0::SimdFloatSqrt            0      0.00%     76.96% # Class of committed instruction (Count)
system.cpu.commit.committedInstType_0::SimdReduceAdd            0      0.00%     76.96% # Class of committed instruction (Count)
system.cpu.commit.committedInstType_0::SimdReduceAlu            0      0.00%     76.96% # Class of committed instruction (Count)
system.cpu.commit.committedInstType_0::SimdReduceCmp            0      0.00%     76.96% # Class of committed instruction (Count)
system.cpu.commit.committedInstType_0::SimdFloatReduceAdd            0      0.00%     76.96% # Class of committed instruction (Count)
system.cpu.commit.committedInstType_0::SimdFloatReduceCmp            0      0.00%     76.96% # Class of committed instruction (Count)
system.cpu.commit.committedInstType_0::SimdAes            0      0.00%     76.96% # Class of committed instruction (Count)
system.cpu.commit.committedInstType_0::SimdAesMix            0      0.00%     76.96% # Class of committed instruction (Count)
system.cpu.commit.committedInstType_0::SimdSha1Hash            0      0.00%     76.96% # Class of committed instruction (Count)
system.cpu.commit.committedInstType_0::SimdSha1Hash2            0      0.00%     76.96% # Class of committed instruction (Count)
system.cpu.commit.committedInstType_0::SimdSha256Hash            0      0.00%     76.96% # Class of committed instruction (Count)
system.cpu.commit.committedInstType_0::SimdSha256Hash2            0      0.00%     76.96% # Class of committed instruction (Count)
system.cpu.commit.committedInstType_0::SimdShaSigma2            0      0.00%     76.96% # Class of committed instruction (Count)
system.cpu.commit.committedInstType_0::SimdShaSigma3            0      0.00%     76.96% # Class of committed instruction (Count)
system.cpu.commit.committedInstType_0::SimdPredAlu            0      0.00%     76.96% # Class of committed instruction (Count)
system.cpu.commit.committedInstType_0::MemRead    209596497     15.83%     92.79% # Class of committed instruction (Count)
system.cpu.commit.committedInstType_0::MemWrite     95318010      7.20%     99.99% # Class of committed instruction (Count)
system.cpu.commit.committedInstType_0::FloatMemRead        86115      0.01%    100.00% # Class of committed instruction (Count)
system.cpu.commit.committedInstType_0::FloatMemWrite        29551      0.00%    100.00% # Class of committed instruction (Count)
system.cpu.commit.committedInstType_0::IprAccess            0      0.00%    100.00% # Class of committed instruction (Count)
system.cpu.commit.committedInstType_0::InstPrefetch            0      0.00%    100.00% # Class of committed instruction (Count)
system.cpu.commit.committedInstType_0::total   1324124270                       # Class of committed instruction (Count)
system.cpu.commit.commitEligibleSamples     105737914                       # number cycles where commit BW limit reached (Cycle)
system.cpu.dcache.demandHits::cpu.data      287573383                       # number of demand (read+write) hits (Count)
system.cpu.dcache.demandHits::total         287573383                       # number of demand (read+write) hits (Count)
system.cpu.dcache.overallHits::cpu.data     287573383                       # number of overall hits (Count)
system.cpu.dcache.overallHits::total        287573383                       # number of overall hits (Count)
system.cpu.dcache.demandMisses::cpu.data        13156                       # number of demand (read+write) misses (Count)
system.cpu.dcache.demandMisses::total           13156                       # number of demand (read+write) misses (Count)
system.cpu.dcache.overallMisses::cpu.data        13156                       # number of overall misses (Count)
system.cpu.dcache.overallMisses::total          13156                       # number of overall misses (Count)
system.cpu.dcache.demandMissLatency::cpu.data    739969997                       # number of demand (read+write) miss ticks (Tick)
system.cpu.dcache.demandMissLatency::total    739969997                       # number of demand (read+write) miss ticks (Tick)
system.cpu.dcache.overallMissLatency::cpu.data    739969997                       # number of overall miss ticks (Tick)
system.cpu.dcache.overallMissLatency::total    739969997                       # number of overall miss ticks (Tick)
system.cpu.dcache.demandAccesses::cpu.data    287586539                       # number of demand (read+write) accesses (Count)
system.cpu.dcache.demandAccesses::total     287586539                       # number of demand (read+write) accesses (Count)
system.cpu.dcache.overallAccesses::cpu.data    287586539                       # number of overall (read+write) accesses (Count)
system.cpu.dcache.overallAccesses::total    287586539                       # number of overall (read+write) accesses (Count)
system.cpu.dcache.demandMissRate::cpu.data     0.000046                       # miss rate for demand accesses (Ratio)
system.cpu.dcache.demandMissRate::total      0.000046                       # miss rate for demand accesses (Ratio)
system.cpu.dcache.overallMissRate::cpu.data     0.000046                       # miss rate for overall accesses (Ratio)
system.cpu.dcache.overallMissRate::total     0.000046                       # miss rate for overall accesses (Ratio)
system.cpu.dcache.demandAvgMissLatency::cpu.data 56245.819170                       # average overall miss latency in ticks ((Tick/Count))
system.cpu.dcache.demandAvgMissLatency::total 56245.819170                       # average overall miss latency in ticks ((Tick/Count))
system.cpu.dcache.overallAvgMissLatency::cpu.data 56245.819170                       # average overall miss latency ((Tick/Count))
system.cpu.dcache.overallAvgMissLatency::total 56245.819170                       # average overall miss latency ((Tick/Count))
system.cpu.dcache.blockedCycles::no_mshrs        16520                       # number of cycles access was blocked (Cycle)
system.cpu.dcache.blockedCycles::no_targets           34                       # number of cycles access was blocked (Cycle)
system.cpu.dcache.blockedCauses::no_mshrs          344                       # number of times access was blocked (Count)
system.cpu.dcache.blockedCauses::no_targets            1                       # number of times access was blocked (Count)
system.cpu.dcache.avgBlocked::no_mshrs      48.023256                       # average number of cycles each access was blocked ((Cycle/Count))
system.cpu.dcache.avgBlocked::no_targets           34                       # average number of cycles each access was blocked ((Cycle/Count))
system.cpu.dcache.writebacks::writebacks          775                       # number of writebacks (Count)
system.cpu.dcache.writebacks::total               775                       # number of writebacks (Count)
system.cpu.dcache.demandMshrHits::cpu.data         9878                       # number of demand (read+write) MSHR hits (Count)
system.cpu.dcache.demandMshrHits::total          9878                       # number of demand (read+write) MSHR hits (Count)
system.cpu.dcache.overallMshrHits::cpu.data         9878                       # number of overall MSHR hits (Count)
system.cpu.dcache.overallMshrHits::total         9878                       # number of overall MSHR hits (Count)
system.cpu.dcache.demandMshrMisses::cpu.data         3278                       # number of demand (read+write) MSHR misses (Count)
system.cpu.dcache.demandMshrMisses::total         3278                       # number of demand (read+write) MSHR misses (Count)
system.cpu.dcache.overallMshrMisses::cpu.data         3278                       # number of overall MSHR misses (Count)
system.cpu.dcache.overallMshrMisses::total         3278                       # number of overall MSHR misses (Count)
system.cpu.dcache.demandMshrMissLatency::cpu.data    201137497                       # number of demand (read+write) MSHR miss ticks (Tick)
system.cpu.dcache.demandMshrMissLatency::total    201137497                       # number of demand (read+write) MSHR miss ticks (Tick)
system.cpu.dcache.overallMshrMissLatency::cpu.data    201137497                       # number of overall MSHR miss ticks (Tick)
system.cpu.dcache.overallMshrMissLatency::total    201137497                       # number of overall MSHR miss ticks (Tick)
system.cpu.dcache.demandMshrMissRate::cpu.data     0.000011                       # mshr miss ratio for demand accesses (Ratio)
system.cpu.dcache.demandMshrMissRate::total     0.000011                       # mshr miss ratio for demand accesses (Ratio)
system.cpu.dcache.overallMshrMissRate::cpu.data     0.000011                       # mshr miss ratio for overall accesses (Ratio)
system.cpu.dcache.overallMshrMissRate::total     0.000011                       # mshr miss ratio for overall accesses (Ratio)
system.cpu.dcache.demandAvgMshrMissLatency::cpu.data 61359.822148                       # average overall mshr miss latency ((Tick/Count))
system.cpu.dcache.demandAvgMshrMissLatency::total 61359.822148                       # average overall mshr miss latency ((Tick/Count))
system.cpu.dcache.overallAvgMshrMissLatency::cpu.data 61359.822148                       # average overall mshr miss latency ((Tick/Count))
system.cpu.dcache.overallAvgMshrMissLatency::total 61359.822148                       # average overall mshr miss latency ((Tick/Count))
system.cpu.dcache.replacements                   2766                       # number of replacements (Count)
system.cpu.dcache.ReadReq.hits::cpu.data    192226498                       # number of ReadReq hits (Count)
system.cpu.dcache.ReadReq.hits::total       192226498                       # number of ReadReq hits (Count)
system.cpu.dcache.ReadReq.misses::cpu.data        12480                       # number of ReadReq misses (Count)
system.cpu.dcache.ReadReq.misses::total         12480                       # number of ReadReq misses (Count)
system.cpu.dcache.ReadReq.missLatency::cpu.data    695916000                       # number of ReadReq miss ticks (Tick)
system.cpu.dcache.ReadReq.missLatency::total    695916000                       # number of ReadReq miss ticks (Tick)
system.cpu.dcache.ReadReq.accesses::cpu.data    192238978                       # number of ReadReq accesses(hits+misses) (Count)
system.cpu.dcache.ReadReq.accesses::total    192238978                       # number of ReadReq accesses(hits+misses) (Count)
system.cpu.dcache.ReadReq.missRate::cpu.data     0.000065                       # miss rate for ReadReq accesses (Ratio)
system.cpu.dcache.ReadReq.missRate::total     0.000065                       # miss rate for ReadReq accesses (Ratio)
system.cpu.dcache.ReadReq.avgMissLatency::cpu.data 55762.500000                       # average ReadReq miss latency ((Tick/Count))
system.cpu.dcache.ReadReq.avgMissLatency::total 55762.500000                       # average ReadReq miss latency ((Tick/Count))
system.cpu.dcache.ReadReq.mshrHits::cpu.data         9872                       # number of ReadReq MSHR hits (Count)
system.cpu.dcache.ReadReq.mshrHits::total         9872                       # number of ReadReq MSHR hits (Count)
system.cpu.dcache.ReadReq.mshrMisses::cpu.data         2608                       # number of ReadReq MSHR misses (Count)
system.cpu.dcache.ReadReq.mshrMisses::total         2608                       # number of ReadReq MSHR misses (Count)
system.cpu.dcache.ReadReq.mshrMissLatency::cpu.data    158062500                       # number of ReadReq MSHR miss ticks (Tick)
system.cpu.dcache.ReadReq.mshrMissLatency::total    158062500                       # number of ReadReq MSHR miss ticks (Tick)
system.cpu.dcache.ReadReq.mshrMissRate::cpu.data     0.000014                       # mshr miss rate for ReadReq accesses (Ratio)
system.cpu.dcache.ReadReq.mshrMissRate::total     0.000014                       # mshr miss rate for ReadReq accesses (Ratio)
system.cpu.dcache.ReadReq.avgMshrMissLatency::cpu.data 60606.786810                       # average ReadReq mshr miss latency ((Tick/Count))
system.cpu.dcache.ReadReq.avgMshrMissLatency::total 60606.786810                       # average ReadReq mshr miss latency ((Tick/Count))
system.cpu.dcache.WriteReq.hits::cpu.data     95346885                       # number of WriteReq hits (Count)
system.cpu.dcache.WriteReq.hits::total       95346885                       # number of WriteReq hits (Count)
system.cpu.dcache.WriteReq.misses::cpu.data          676                       # number of WriteReq misses (Count)
system.cpu.dcache.WriteReq.misses::total          676                       # number of WriteReq misses (Count)
system.cpu.dcache.WriteReq.missLatency::cpu.data     44053997                       # number of WriteReq miss ticks (Tick)
system.cpu.dcache.WriteReq.missLatency::total     44053997                       # number of WriteReq miss ticks (Tick)
system.cpu.dcache.WriteReq.accesses::cpu.data     95347561                       # number of WriteReq accesses(hits+misses) (Count)
system.cpu.dcache.WriteReq.accesses::total     95347561                       # number of WriteReq accesses(hits+misses) (Count)
system.cpu.dcache.WriteReq.missRate::cpu.data     0.000007                       # miss rate for WriteReq accesses (Ratio)
system.cpu.dcache.WriteReq.missRate::total     0.000007                       # miss rate for WriteReq accesses (Ratio)
system.cpu.dcache.WriteReq.avgMissLatency::cpu.data 65168.634615                       # average WriteReq miss latency ((Tick/Count))
system.cpu.dcache.WriteReq.avgMissLatency::total 65168.634615                       # average WriteReq miss latency ((Tick/Count))
system.cpu.dcache.WriteReq.mshrHits::cpu.data            6                       # number of WriteReq MSHR hits (Count)
system.cpu.dcache.WriteReq.mshrHits::total            6                       # number of WriteReq MSHR hits (Count)
system.cpu.dcache.WriteReq.mshrMisses::cpu.data          670                       # number of WriteReq MSHR misses (Count)
system.cpu.dcache.WriteReq.mshrMisses::total          670                       # number of WriteReq MSHR misses (Count)
system.cpu.dcache.WriteReq.mshrMissLatency::cpu.data     43074997                       # number of WriteReq MSHR miss ticks (Tick)
system.cpu.dcache.WriteReq.mshrMissLatency::total     43074997                       # number of WriteReq MSHR miss ticks (Tick)
system.cpu.dcache.WriteReq.mshrMissRate::cpu.data     0.000007                       # mshr miss rate for WriteReq accesses (Ratio)
system.cpu.dcache.WriteReq.mshrMissRate::total     0.000007                       # mshr miss rate for WriteReq accesses (Ratio)
system.cpu.dcache.WriteReq.avgMshrMissLatency::cpu.data 64291.040299                       # average WriteReq mshr miss latency ((Tick/Count))
system.cpu.dcache.WriteReq.avgMshrMissLatency::total 64291.040299                       # average WriteReq mshr miss latency ((Tick/Count))
system.cpu.dcache.power_state.pwrStateResidencyTicks::UNDEFINED 259944671000                       # Cumulative time (in ticks) in various power states (Tick)
system.cpu.dcache.tags.tagsInUse           511.941818                       # Average ticks per tags in use ((Tick/Count))
system.cpu.dcache.tags.totalRefs            287576661                       # Total number of references to valid blocks. (Count)
system.cpu.dcache.tags.sampledRefs               3278                       # Sample count of references to valid blocks. (Count)
system.cpu.dcache.tags.avgRefs           87729.304759                       # Average number of references to valid blocks. ((Count/Count))
system.cpu.dcache.tags.warmupTick              168000                       # The tick when the warmup percentage was hit. (Tick)
system.cpu.dcache.tags.occupancies::cpu.data   511.941818                       # Average occupied blocks per tick, per requestor ((Count/Tick))
system.cpu.dcache.tags.avgOccs::cpu.data     0.999886                       # Average percentage of cache occupancy ((Ratio/Tick))
system.cpu.dcache.tags.avgOccs::total        0.999886                       # Average percentage of cache occupancy ((Ratio/Tick))
system.cpu.dcache.tags.occupanciesTaskId::1024          512                       # Occupied blocks per task id (Count)
system.cpu.dcache.tags.ageTaskId_1024::0           48                       # Occupied blocks per task id, per block age (Count)
system.cpu.dcache.tags.ageTaskId_1024::4          464                       # Occupied blocks per task id, per block age (Count)
system.cpu.dcache.tags.ratioOccsTaskId::1024            1                       # Ratio of occupied blocks and all blocks, per task id (Ratio)
system.cpu.dcache.tags.tagAccesses          575176356                       # Number of tag accesses (Count)
system.cpu.dcache.tags.dataAccesses         575176356                       # Number of data accesses (Count)
system.cpu.dcache.tags.power_state.pwrStateResidencyTicks::UNDEFINED 259944671000                       # Cumulative time (in ticks) in various power states (Tick)
system.cpu.decode.idleCycles                143418014                       # Number of cycles decode is idle (Cycle)
system.cpu.decode.blockedCycles              14593468                       # Number of cycles decode is blocked (Cycle)
system.cpu.decode.runCycles                 233121626                       # Number of cycles decode is running (Cycle)
system.cpu.decode.unblockCycles               3583855                       # Number of cycles decode is unblocking (Cycle)
system.cpu.decode.squashCycles                6670956                       # Number of cycles decode is squashing (Cycle)
system.cpu.decode.branchResolved             62837888                       # Number of times decode resolved a branch (Count)
system.cpu.decode.branchMispred                 69267                       # Number of times decode detected a branch misprediction (Count)
system.cpu.decode.decodedInsts             1554552784                       # Number of instructions handled by decode (Count)
system.cpu.decode.squashedInsts                149531                       # Number of squashed instructions handled by decode (Count)
system.cpu.fetch.icacheStallCycles          131140387                       # Number of cycles fetch is stalled on an Icache miss (Cycle)
system.cpu.fetch.insts                      822650609                       # Number of instructions fetch has processed (Count)
system.cpu.fetch.branches                   164448034                       # Number of branches that fetch encountered (Count)
system.cpu.fetch.predictedBranches           84447393                       # Number of branches that fetch has predicted taken (Count)
system.cpu.fetch.cycles                     263528918                       # Number of cycles fetch has run and was not squashing or blocked (Cycle)
system.cpu.fetch.squashCycles                13428432                       # Number of cycles fetch has spent squashing (Cycle)
system.cpu.fetch.miscStallCycles                  699                       # Number of cycles fetch has spent waiting on interrupts, or bad addresses, or out of MSHRs (Cycle)
system.cpu.fetch.pendingTrapStallCycles          3671                       # Number of stall cycles due to pending traps (Cycle)
system.cpu.fetch.icacheWaitRetryStallCycles           28                       # Number of stall cycles due to full MSHR (Cycle)
system.cpu.fetch.cacheLines                 124004903                       # Number of cache lines fetched (Count)
system.cpu.fetch.icacheSquashes               3016162                       # Number of outstanding Icache misses that were squashed (Count)
system.cpu.fetch.nisnDist::samples          401387919                       # Number of instructions fetched each cycle (Total) (Count)
system.cpu.fetch.nisnDist::mean              3.932722                       # Number of instructions fetched each cycle (Total) (Count)
system.cpu.fetch.nisnDist::stdev             3.580507                       # Number of instructions fetched each cycle (Total) (Count)
system.cpu.fetch.nisnDist::underflows               0      0.00%      0.00% # Number of instructions fetched each cycle (Total) (Count)
system.cpu.fetch.nisnDist::0                159876563     39.83%     39.83% # Number of instructions fetched each cycle (Total) (Count)
system.cpu.fetch.nisnDist::1                  8668322      2.16%     41.99% # Number of instructions fetched each cycle (Total) (Count)
system.cpu.fetch.nisnDist::2                  8890422      2.21%     44.21% # Number of instructions fetched each cycle (Total) (Count)
system.cpu.fetch.nisnDist::3                  9602134      2.39%     46.60% # Number of instructions fetched each cycle (Total) (Count)
system.cpu.fetch.nisnDist::4                 15138088      3.77%     50.37% # Number of instructions fetched each cycle (Total) (Count)
system.cpu.fetch.nisnDist::5                 24485975      6.10%     56.47% # Number of instructions fetched each cycle (Total) (Count)
system.cpu.fetch.nisnDist::6                 24412615      6.08%     62.55% # Number of instructions fetched each cycle (Total) (Count)
system.cpu.fetch.nisnDist::7                  8676852      2.16%     64.71% # Number of instructions fetched each cycle (Total) (Count)
system.cpu.fetch.nisnDist::8                141636948     35.29%    100.00% # Number of instructions fetched each cycle (Total) (Count)
system.cpu.fetch.nisnDist::overflows                0      0.00%    100.00% # Number of instructions fetched each cycle (Total) (Count)
system.cpu.fetch.nisnDist::min_value                0                       # Number of instructions fetched each cycle (Total) (Count)
system.cpu.fetch.nisnDist::max_value                8                       # Number of instructions fetched each cycle (Total) (Count)
system.cpu.fetch.nisnDist::total            401387919                       # Number of instructions fetched each cycle (Total) (Count)
system.cpu.fetch.branchRate                  0.409148                       # Number of branch fetches per cycle (Ratio)
system.cpu.fetch.rate                        2.046759                       # Number of inst fetches per cycle ((Count/Cycle))
system.cpu.icache.demandHits::cpu.inst      123757663                       # number of demand (read+write) hits (Count)
system.cpu.icache.demandHits::total         123757663                       # number of demand (read+write) hits (Count)
system.cpu.icache.overallHits::cpu.inst     123757663                       # number of overall hits (Count)
system.cpu.icache.overallHits::total        123757663                       # number of overall hits (Count)
system.cpu.icache.demandMisses::cpu.inst       247240                       # number of demand (read+write) misses (Count)
system.cpu.icache.demandMisses::total          247240                       # number of demand (read+write) misses (Count)
system.cpu.icache.overallMisses::cpu.inst       247240                       # number of overall misses (Count)
system.cpu.icache.overallMisses::total         247240                       # number of overall misses (Count)
system.cpu.icache.demandMissLatency::cpu.inst   3128574498                       # number of demand (read+write) miss ticks (Tick)
system.cpu.icache.demandMissLatency::total   3128574498                       # number of demand (read+write) miss ticks (Tick)
system.cpu.icache.overallMissLatency::cpu.inst   3128574498                       # number of overall miss ticks (Tick)
system.cpu.icache.overallMissLatency::total   3128574498                       # number of overall miss ticks (Tick)
system.cpu.icache.demandAccesses::cpu.inst    124004903                       # number of demand (read+write) accesses (Count)
system.cpu.icache.demandAccesses::total     124004903                       # number of demand (read+write) accesses (Count)
system.cpu.icache.overallAccesses::cpu.inst    124004903                       # number of overall (read+write) accesses (Count)
system.cpu.icache.overallAccesses::total    124004903                       # number of overall (read+write) accesses (Count)
system.cpu.icache.demandMissRate::cpu.inst     0.001994                       # miss rate for demand accesses (Ratio)
system.cpu.icache.demandMissRate::total      0.001994                       # miss rate for demand accesses (Ratio)
system.cpu.icache.overallMissRate::cpu.inst     0.001994                       # miss rate for overall accesses (Ratio)
system.cpu.icache.overallMissRate::total     0.001994                       # miss rate for overall accesses (Ratio)
system.cpu.icache.demandAvgMissLatency::cpu.inst 12653.998131                       # average overall miss latency in ticks ((Tick/Count))
system.cpu.icache.demandAvgMissLatency::total 12653.998131                       # average overall miss latency in ticks ((Tick/Count))
system.cpu.icache.overallAvgMissLatency::cpu.inst 12653.998131                       # average overall miss latency ((Tick/Count))
system.cpu.icache.overallAvgMissLatency::total 12653.998131                       # average overall miss latency ((Tick/Count))
system.cpu.icache.blockedCycles::no_mshrs          304                       # number of cycles access was blocked (Cycle)
system.cpu.icache.blockedCycles::no_targets            0                       # number of cycles access was blocked (Cycle)
system.cpu.icache.blockedCauses::no_mshrs            5                       # number of times access was blocked (Count)
system.cpu.icache.blockedCauses::no_targets            0                       # number of times access was blocked (Count)
system.cpu.icache.avgBlocked::no_mshrs      60.800000                       # average number of cycles each access was blocked ((Cycle/Count))
system.cpu.icache.avgBlocked::no_targets          nan                       # average number of cycles each access was blocked ((Cycle/Count))
system.cpu.icache.writebacks::writebacks            1                       # number of writebacks (Count)
system.cpu.icache.writebacks::total                 1                       # number of writebacks (Count)
system.cpu.icache.demandMshrHits::cpu.inst        18062                       # number of demand (read+write) MSHR hits (Count)
system.cpu.icache.demandMshrHits::total         18062                       # number of demand (read+write) MSHR hits (Count)
system.cpu.icache.overallMshrHits::cpu.inst        18062                       # number of overall MSHR hits (Count)
system.cpu.icache.overallMshrHits::total        18062                       # number of overall MSHR hits (Count)
system.cpu.icache.demandMshrMisses::cpu.inst       229178                       # number of demand (read+write) MSHR misses (Count)
system.cpu.icache.demandMshrMisses::total       229178                       # number of demand (read+write) MSHR misses (Count)
system.cpu.icache.overallMshrMisses::cpu.inst       229178                       # number of overall MSHR misses (Count)
system.cpu.icache.overallMshrMisses::total       229178                       # number of overall MSHR misses (Count)
system.cpu.icache.demandMshrMissLatency::cpu.inst   2825747499                       # number of demand (read+write) MSHR miss ticks (Tick)
system.cpu.icache.demandMshrMissLatency::total   2825747499                       # number of demand (read+write) MSHR miss ticks (Tick)
system.cpu.icache.overallMshrMissLatency::cpu.inst   2825747499                       # number of overall MSHR miss ticks (Tick)
system.cpu.icache.overallMshrMissLatency::total   2825747499                       # number of overall MSHR miss ticks (Tick)
system.cpu.icache.demandMshrMissRate::cpu.inst     0.001848                       # mshr miss ratio for demand accesses (Ratio)
system.cpu.icache.demandMshrMissRate::total     0.001848                       # mshr miss ratio for demand accesses (Ratio)
system.cpu.icache.overallMshrMissRate::cpu.inst     0.001848                       # mshr miss ratio for overall accesses (Ratio)
system.cpu.icache.overallMshrMissRate::total     0.001848                       # mshr miss ratio for overall accesses (Ratio)
system.cpu.icache.demandAvgMshrMissLatency::cpu.inst 12329.924770                       # average overall mshr miss latency ((Tick/Count))
system.cpu.icache.demandAvgMshrMissLatency::total 12329.924770                       # average overall mshr miss latency ((Tick/Count))
system.cpu.icache.overallAvgMshrMissLatency::cpu.inst 12329.924770                       # average overall mshr miss latency ((Tick/Count))
system.cpu.icache.overallAvgMshrMissLatency::total 12329.924770                       # average overall mshr miss latency ((Tick/Count))
system.cpu.icache.replacements                 228921                       # number of replacements (Count)
system.cpu.icache.ReadReq.hits::cpu.inst    123757663                       # number of ReadReq hits (Count)
system.cpu.icache.ReadReq.hits::total       123757663                       # number of ReadReq hits (Count)
system.cpu.icache.ReadReq.misses::cpu.inst       247240                       # number of ReadReq misses (Count)
system.cpu.icache.ReadReq.misses::total        247240                       # number of ReadReq misses (Count)
system.cpu.icache.ReadReq.missLatency::cpu.inst   3128574498                       # number of ReadReq miss ticks (Tick)
system.cpu.icache.ReadReq.missLatency::total   3128574498                       # number of ReadReq miss ticks (Tick)
system.cpu.icache.ReadReq.accesses::cpu.inst    124004903                       # number of ReadReq accesses(hits+misses) (Count)
system.cpu.icache.ReadReq.accesses::total    124004903                       # number of ReadReq accesses(hits+misses) (Count)
system.cpu.icache.ReadReq.missRate::cpu.inst     0.001994                       # miss rate for ReadReq accesses (Ratio)
system.cpu.icache.ReadReq.missRate::total     0.001994                       # miss rate for ReadReq accesses (Ratio)
system.cpu.icache.ReadReq.avgMissLatency::cpu.inst 12653.998131                       # average ReadReq miss latency ((Tick/Count))
system.cpu.icache.ReadReq.avgMissLatency::total 12653.998131                       # average ReadReq miss latency ((Tick/Count))
system.cpu.icache.ReadReq.mshrHits::cpu.inst        18062                       # number of ReadReq MSHR hits (Count)
system.cpu.icache.ReadReq.mshrHits::total        18062                       # number of ReadReq MSHR hits (Count)
system.cpu.icache.ReadReq.mshrMisses::cpu.inst       229178                       # number of ReadReq MSHR misses (Count)
system.cpu.icache.ReadReq.mshrMisses::total       229178                       # number of ReadReq MSHR misses (Count)
system.cpu.icache.ReadReq.mshrMissLatency::cpu.inst   2825747499                       # number of ReadReq MSHR miss ticks (Tick)
system.cpu.icache.ReadReq.mshrMissLatency::total   2825747499                       # number of ReadReq MSHR miss ticks (Tick)
system.cpu.icache.ReadReq.mshrMissRate::cpu.inst     0.001848                       # mshr miss rate for ReadReq accesses (Ratio)
system.cpu.icache.ReadReq.mshrMissRate::total     0.001848                       # mshr miss rate for ReadReq accesses (Ratio)
system.cpu.icache.ReadReq.avgMshrMissLatency::cpu.inst 12329.924770                       # average ReadReq mshr miss latency ((Tick/Count))
system.cpu.icache.ReadReq.avgMshrMissLatency::total 12329.924770                       # average ReadReq mshr miss latency ((Tick/Count))
system.cpu.icache.power_state.pwrStateResidencyTicks::UNDEFINED 259944671000                       # Cumulative time (in ticks) in various power states (Tick)
system.cpu.icache.tags.tagsInUse           255.988165                       # Average ticks per tags in use ((Tick/Count))
system.cpu.icache.tags.totalRefs            123986840                       # Total number of references to valid blocks. (Count)
system.cpu.icache.tags.sampledRefs             229177                       # Sample count of references to valid blocks. (Count)
system.cpu.icache.tags.avgRefs             541.009089                       # Average number of references to valid blocks. ((Count/Count))
system.cpu.icache.tags.warmupTick               82000                       # The tick when the warmup percentage was hit. (Tick)
system.cpu.icache.tags.occupancies::cpu.inst   255.988165                       # Average occupied blocks per tick, per requestor ((Count/Tick))
system.cpu.icache.tags.avgOccs::cpu.inst     0.999954                       # Average percentage of cache occupancy ((Ratio/Tick))
system.cpu.icache.tags.avgOccs::total        0.999954                       # Average percentage of cache occupancy ((Ratio/Tick))
system.cpu.icache.tags.occupanciesTaskId::1024          256                       # Occupied blocks per task id (Count)
system.cpu.icache.tags.ageTaskId_1024::0          107                       # Occupied blocks per task id, per block age (Count)
system.cpu.icache.tags.ageTaskId_1024::1            1                       # Occupied blocks per task id, per block age (Count)
system.cpu.icache.tags.ageTaskId_1024::2            1                       # Occupied blocks per task id, per block age (Count)
system.cpu.icache.tags.ageTaskId_1024::4          147                       # Occupied blocks per task id, per block age (Count)
system.cpu.icache.tags.ratioOccsTaskId::1024            1                       # Ratio of occupied blocks and all blocks, per task id (Ratio)
system.cpu.icache.tags.tagAccesses          248238983                       # Number of tag accesses (Count)
system.cpu.icache.tags.dataAccesses         248238983                       # Number of data accesses (Count)
system.cpu.icache.tags.power_state.pwrStateResidencyTicks::UNDEFINED 259944671000                       # Cumulative time (in ticks) in various power states (Tick)
system.cpu.iew.idleCycles                           0                       # Number of cycles IEW is idle (Cycle)
system.cpu.iew.squashCycles                   6670956                       # Number of cycles IEW is squashing (Cycle)
system.cpu.iew.blockCycles                   14466901                       # Number of cycles IEW is blocking (Cycle)
system.cpu.iew.unblockCycles                     4783                       # Number of cycles IEW is unblocking (Cycle)
system.cpu.iew.dispatchedInsts             1473403862                       # Number of instructions dispatched to IQ (Count)
system.cpu.iew.dispSquashedInsts                 2680                       # Number of squashed instructions skipped by dispatch (Count)
system.cpu.iew.dispLoadInsts                227647726                       # Number of dispatched load instructions (Count)
system.cpu.iew.dispStoreInsts               104926367                       # Number of dispatched store instructions (Count)
system.cpu.iew.dispNonSpecInsts                    19                       # Number of dispatched non-speculative instructions (Count)
system.cpu.iew.iqFullEvents                       829                       # Number of times the IQ has become full, causing a stall (Count)
system.cpu.iew.lsqFullEvents                     3529                       # Number of times the LSQ has become full, causing a stall (Count)
system.cpu.iew.memOrderViolationEvents           6258                       # Number of memory order violations (Count)
system.cpu.iew.predictedTakenIncorrect        4967826                       # Number of branches that were predicted taken incorrectly (Count)
system.cpu.iew.predictedNotTakenIncorrect      2760644                       # Number of branches that were predicted not taken incorrectly (Count)
system.cpu.iew.branchMispredicts              7728470                       # Number of branch mispredicts detected at execute (Count)
system.cpu.iew.instsToCommit               1431358018                       # Cumulative count of insts sent to commit (Count)
system.cpu.iew.writebackCount              1429875892                       # Cumulative count of insts written-back (Count)
system.cpu.iew.producerInst                1007998380                       # Number of instructions producing a value (Count)
system.cpu.iew.consumerInst                1493854962                       # Number of instructions consuming a value (Count)
system.cpu.iew.wbRate                        3.557538                       # Insts written-back per cycle ((Count/Cycle))
system.cpu.iew.wbFanout                      0.674763                       # Average fanout of values written-back ((Count/Count))
system.cpu.interrupts.clk_domain.clock           8000                       # Clock period in ticks (Tick)
system.cpu.lsq0.forwLoads                    27163122                       # Number of loads that had data forwarded from stores (Count)
system.cpu.lsq0.squashedLoads                17965114                       # Number of loads squashed (Count)
system.cpu.lsq0.ignoredResponses                 1178                       # Number of memory responses ignored because the instruction is squashed (Count)
system.cpu.lsq0.memOrderViolation                6258                       # Number of memory ordering violations (Count)
system.cpu.lsq0.squashedStores                9578806                       # Number of stores squashed (Count)
system.cpu.lsq0.rescheduledLoads                28375                       # Number of loads that were rescheduled (Count)
system.cpu.lsq0.blockedByCache                    259                       # Number of times an access to memory failed due to the cache being blocked (Count)
system.cpu.lsq0.loadToUse::samples          209682612                       # Distribution of cycle latency between the first time a load is issued and its completion (Unspecified)
system.cpu.lsq0.loadToUse::mean              3.136790                       # Distribution of cycle latency between the first time a load is issued and its completion (Unspecified)
system.cpu.lsq0.loadToUse::stdev             1.072417                       # Distribution of cycle latency between the first time a load is issued and its completion (Unspecified)
system.cpu.lsq0.loadToUse::0-9              209659837     99.99%     99.99% # Distribution of cycle latency between the first time a load is issued and its completion (Unspecified)
system.cpu.lsq0.loadToUse::10-19                14549      0.01%    100.00% # Distribution of cycle latency between the first time a load is issued and its completion (Unspecified)
system.cpu.lsq0.loadToUse::20-29                  660      0.00%    100.00% # Distribution of cycle latency between the first time a load is issued and its completion (Unspecified)
system.cpu.lsq0.loadToUse::30-39                  150      0.00%    100.00% # Distribution of cycle latency between the first time a load is issued and its completion (Unspecified)
system.cpu.lsq0.loadToUse::40-49                  121      0.00%    100.00% # Distribution of cycle latency between the first time a load is issued and its completion (Unspecified)
system.cpu.lsq0.loadToUse::50-59                   89      0.00%    100.00% # Distribution of cycle latency between the first time a load is issued and its completion (Unspecified)
system.cpu.lsq0.loadToUse::60-69                  119      0.00%    100.00% # Distribution of cycle latency between the first time a load is issued and its completion (Unspecified)
system.cpu.lsq0.loadToUse::70-79                  282      0.00%    100.00% # Distribution of cycle latency between the first time a load is issued and its completion (Unspecified)
system.cpu.lsq0.loadToUse::80-89                  265      0.00%    100.00% # Distribution of cycle latency between the first time a load is issued and its completion (Unspecified)
system.cpu.lsq0.loadToUse::90-99                  218      0.00%    100.00% # Distribution of cycle latency between the first time a load is issued and its completion (Unspecified)
system.cpu.lsq0.loadToUse::100-109                422      0.00%    100.00% # Distribution of cycle latency between the first time a load is issued and its completion (Unspecified)
system.cpu.lsq0.loadToUse::110-119                333      0.00%    100.00% # Distribution of cycle latency between the first time a load is issued and its completion (Unspecified)
system.cpu.lsq0.loadToUse::120-129                713      0.00%    100.00% # Distribution of cycle latency between the first time a load is issued and its completion (Unspecified)
system.cpu.lsq0.loadToUse::130-139               3440      0.00%    100.00% # Distribution of cycle latency between the first time a load is issued and its completion (Unspecified)
system.cpu.lsq0.loadToUse::140-149                434      0.00%    100.00% # Distribution of cycle latency between the first time a load is issued and its completion (Unspecified)
system.cpu.lsq0.loadToUse::150-159                223      0.00%    100.00% # Distribution of cycle latency between the first time a load is issued and its completion (Unspecified)
system.cpu.lsq0.loadToUse::160-169                346      0.00%    100.00% # Distribution of cycle latency between the first time a load is issued and its completion (Unspecified)
system.cpu.lsq0.loadToUse::170-179                 59      0.00%    100.00% # Distribution of cycle latency between the first time a load is issued and its completion (Unspecified)
system.cpu.lsq0.loadToUse::180-189                 65      0.00%    100.00% # Distribution of cycle latency between the first time a load is issued and its completion (Unspecified)
system.cpu.lsq0.loadToUse::190-199                146      0.00%    100.00% # Distribution of cycle latency between the first time a load is issued and its completion (Unspecified)
system.cpu.lsq0.loadToUse::200-209                 27      0.00%    100.00% # Distribution of cycle latency between the first time a load is issued and its completion (Unspecified)
system.cpu.lsq0.loadToUse::250-259                  3      0.00%    100.00% # Distribution of cycle latency between the first time a load is issued and its completion (Unspecified)
system.cpu.lsq0.loadToUse::260-269                  4      0.00%    100.00% # Distribution of cycle latency between the first time a load is issued and its completion (Unspecified)
system.cpu.lsq0.loadToUse::280-289                  1      0.00%    100.00% # Distribution of cycle latency between the first time a load is issued and its completion (Unspecified)
system.cpu.lsq0.loadToUse::overflows              106      0.00%    100.00% # Distribution of cycle latency between the first time a load is issued and its completion (Unspecified)
system.cpu.lsq0.loadToUse::min_value                2                       # Distribution of cycle latency between the first time a load is issued and its completion (Unspecified)
system.cpu.lsq0.loadToUse::max_value              774                       # Distribution of cycle latency between the first time a load is issued and its completion (Unspecified)
system.cpu.lsq0.loadToUse::total            209682612                       # Distribution of cycle latency between the first time a load is issued and its completion (Unspecified)
system.cpu.mmu.dtb.rdAccesses               219430778                       # TLB accesses on read requests (Count)
system.cpu.mmu.dtb.wrAccesses               101186428                       # TLB accesses on write requests (Count)
system.cpu.mmu.dtb.rdMisses                       400                       # TLB misses on read requests (Count)
system.cpu.mmu.dtb.wrMisses                        99                       # TLB misses on write requests (Count)
[...]
system.mem_ctrl.requestorReadAvgLat::cpu.inst     26201.87                       # Per-requestor read average memory access latency ((Tick/Count))
system.mem_ctrl.requestorReadAvgLat::cpu.data     25997.07                       # Per-requestor read average memory access latency ((Tick/Count))
system.mem_ctrl.dram.bytesRead::cpu.inst        78784                       # Number of bytes read from this memory (Byte)
system.mem_ctrl.dram.bytesRead::cpu.data       169024                       # Number of bytes read from this memory (Byte)
system.mem_ctrl.dram.bytesRead::total          247808                       # Number of bytes read from this memory (Byte)
system.mem_ctrl.dram.bytesInstRead::cpu.inst        78784                       # Number of instructions bytes read from this memory (Byte)
system.mem_ctrl.dram.bytesInstRead::total        78784                       # Number of instructions bytes read from this memory (Byte)
system.mem_ctrl.dram.numReads::cpu.inst          1231                       # Number of read requests responded to by this memory (Count)
system.mem_ctrl.dram.numReads::cpu.data          2641                       # Number of read requests responded to by this memory (Count)
system.mem_ctrl.dram.numReads::total             3872                       # Number of read requests responded to by this memory (Count)
system.mem_ctrl.dram.bwRead::cpu.inst          303080                       # Total read bandwidth from this memory ((Byte/Second))
system.mem_ctrl.dram.bwRead::cpu.data          650231                       # Total read bandwidth from this memory ((Byte/Second))
system.mem_ctrl.dram.bwRead::total             953311                       # Total read bandwidth from this memory ((Byte/Second))
system.mem_ctrl.dram.bwInstRead::cpu.inst       303080                       # Instruction read bandwidth from this memory ((Byte/Second))
system.mem_ctrl.dram.bwInstRead::total         303080                       # Instruction read bandwidth from this memory ((Byte/Second))
system.mem_ctrl.dram.bwTotal::cpu.inst         303080                       # Total bandwidth to/from this memory ((Byte/Second))
system.mem_ctrl.dram.bwTotal::cpu.data         650231                       # Total bandwidth to/from this memory ((Byte/Second))
system.mem_ctrl.dram.bwTotal::total            953311                       # Total bandwidth to/from this memory ((Byte/Second))
system.mem_ctrl.dram.readBursts                  3872                       # Number of DRAM read bursts (Count)
system.mem_ctrl.dram.writeBursts                    0                       # Number of DRAM write bursts (Count)
system.mem_ctrl.dram.perBankRdBursts::0           352                       # Per bank write bursts (Count)
system.mem_ctrl.dram.perBankRdBursts::1           235                       # Per bank write bursts (Count)
system.mem_ctrl.dram.perBankRdBursts::2           316                       # Per bank write bursts (Count)
system.mem_ctrl.dram.perBankRdBursts::3           239                       # Per bank write bursts (Count)
system.mem_ctrl.dram.perBankRdBursts::4           303                       # Per bank write bursts (Count)
system.mem_ctrl.dram.perBankRdBursts::5           183                       # Per bank write bursts (Count)
system.mem_ctrl.dram.perBankRdBursts::6           199                       # Per bank write bursts (Count)
system.mem_ctrl.dram.perBankRdBursts::7           187                       # Per bank write bursts (Count)
system.mem_ctrl.dram.perBankRdBursts::8           229                       # Per bank write bursts (Count)
system.mem_ctrl.dram.perBankRdBursts::9           307                       # Per bank write bursts (Count)
system.mem_ctrl.dram.perBankRdBursts::10          236                       # Per bank write bursts (Count)
system.mem_ctrl.dram.perBankRdBursts::11          237                       # Per bank write bursts (Count)
system.mem_ctrl.dram.perBankRdBursts::12          201                       # Per bank write bursts (Count)
system.mem_ctrl.dram.perBankRdBursts::13          212                       # Per bank write bursts (Count)
system.mem_ctrl.dram.perBankRdBursts::14          189                       # Per bank write bursts (Count)
system.mem_ctrl.dram.perBankRdBursts::15          247                       # Per bank write bursts (Count)
system.mem_ctrl.dram.perBankWrBursts::0             0                       # Per bank write bursts (Count)
system.mem_ctrl.dram.perBankWrBursts::1             0                       # Per bank write bursts (Count)
system.mem_ctrl.dram.perBankWrBursts::2             0                       # Per bank write bursts (Count)
system.mem_ctrl.dram.perBankWrBursts::3             0                       # Per bank write bursts (Count)
system.mem_ctrl.dram.perBankWrBursts::4             0                       # Per bank write bursts (Count)
system.mem_ctrl.dram.perBankWrBursts::5             0                       # Per bank write bursts (Count)
system.mem_ctrl.dram.perBankWrBursts::6             0                       # Per bank write bursts (Count)
system.mem_ctrl.dram.perBankWrBursts::7             0                       # Per bank write bursts (Count)
system.mem_ctrl.dram.perBankWrBursts::8             0                       # Per bank write bursts (Count)
system.mem_ctrl.dram.perBankWrBursts::9             0                       # Per bank write bursts (Count)
system.mem_ctrl.dram.perBankWrBursts::10            0                       # Per bank write bursts (Count)
system.mem_ctrl.dram.perBankWrBursts::11            0                       # Per bank write bursts (Count)
system.mem_ctrl.dram.perBankWrBursts::12            0                       # Per bank write bursts (Count)
system.mem_ctrl.dram.perBankWrBursts::13            0                       # Per bank write bursts (Count)
system.mem_ctrl.dram.perBankWrBursts::14            0                       # Per bank write bursts (Count)
system.mem_ctrl.dram.perBankWrBursts::15            0                       # Per bank write bursts (Count)
system.mem_ctrl.dram.totQLat                 28312750                       # Total ticks spent queuing (Tick)
system.mem_ctrl.dram.totBusLat               19360000                       # Total ticks spent in databus transfers (Tick)
system.mem_ctrl.dram.totMemAccLat           100912750                       # Total ticks spent from burst creation until serviced by the DRAM (Tick)
system.mem_ctrl.dram.avgQLat                  7312.18                       # Average queueing delay per DRAM burst ((Tick/Count))
system.mem_ctrl.dram.avgBusLat                5000.00                       # Average bus latency per DRAM burst ((Tick/Count))
system.mem_ctrl.dram.avgMemAccLat            26062.18                       # Average memory access latency per DRAM burst ((Tick/Count))
system.mem_ctrl.dram.readRowHits                 3306                       # Number of row buffer hits during reads (Count)
system.mem_ctrl.dram.writeRowHits                   0                       # Number of row buffer hits during writes (Count)
system.mem_ctrl.dram.readRowHitRate             85.38                       # Row buffer hit rate for reads (Ratio)
system.mem_ctrl.dram.writeRowHitRate              nan                       # Row buffer hit rate for writes (Ratio)
system.mem_ctrl.dram.bytesPerActivate::samples          563                       # Bytes accessed per row activation (Byte)
system.mem_ctrl.dram.bytesPerActivate::mean   439.474245                       # Bytes accessed per row activation (Byte)
system.mem_ctrl.dram.bytesPerActivate::gmean   267.901326                       # Bytes accessed per row activation (Byte)
system.mem_ctrl.dram.bytesPerActivate::stdev   379.964646                       # Bytes accessed per row activation (Byte)
system.mem_ctrl.dram.bytesPerActivate::0-127          141     25.04%     25.04% # Bytes accessed per row activation (Byte)
system.mem_ctrl.dram.bytesPerActivate::128-255          113     20.07%     45.12% # Bytes accessed per row activation (Byte)
system.mem_ctrl.dram.bytesPerActivate::256-383           61     10.83%     55.95% # Bytes accessed per row activation (Byte)
system.mem_ctrl.dram.bytesPerActivate::384-511           34      6.04%     61.99% # Bytes accessed per row activation (Byte)
system.mem_ctrl.dram.bytesPerActivate::512-639           30      5.33%     67.32% # Bytes accessed per row activation (Byte)
system.mem_ctrl.dram.bytesPerActivate::640-767           18      3.20%     70.52% # Bytes accessed per row activation (Byte)
system.mem_ctrl.dram.bytesPerActivate::768-895           27      4.80%     75.31% # Bytes accessed per row activation (Byte)
system.mem_ctrl.dram.bytesPerActivate::896-1023           20      3.55%     78.86% # Bytes accessed per row activation (Byte)
system.mem_ctrl.dram.bytesPerActivate::1024-1151          119     21.14%    100.00% # Bytes accessed per row activation (Byte)
system.mem_ctrl.dram.bytesPerActivate::total          563                       # Bytes accessed per row activation (Byte)
system.mem_ctrl.dram.bytesRead                 247808                       # Total bytes read (Byte)
system.mem_ctrl.dram.bytesWritten                   0                       # Total bytes written (Byte)
system.mem_ctrl.dram.avgRdBW                 0.953311                       # Average DRAM read bandwidth in MiBytes/s ((Byte/Second))
system.mem_ctrl.dram.avgWrBW                        0                       # Average DRAM write bandwidth in MiBytes/s ((Byte/Second))
system.mem_ctrl.dram.peakBW                  12800.00                       # Theoretical peak bandwidth in MiByte/s ((Byte/Second))
system.mem_ctrl.dram.busUtil                     0.01                       # Data bus utilization in percentage (Ratio)
system.mem_ctrl.dram.busUtilRead                 0.01                       # Data bus utilization in percentage for reads (Ratio)
system.mem_ctrl.dram.busUtilWrite                0.00                       # Data bus utilization in percentage for writes (Ratio)
system.mem_ctrl.dram.pageHitRate                85.38                       # Row buffer hit rate, read and write combined (Ratio)
system.mem_ctrl.dram.power_state.pwrStateResidencyTicks::UNDEFINED 259944671000                       # Cumulative time (in ticks) in various power states (Tick)
system.mem_ctrl.dram.rank0.actEnergy          1863540                       # Energy for activate commands per rank (pJ) (Joule)
system.mem_ctrl.dram.rank0.preEnergy           986700                       # Energy for precharge commands per rank (pJ) (Joule)
system.mem_ctrl.dram.rank0.readEnergy        14379960                       # Energy for read commands per rank (pJ) (Joule)
system.mem_ctrl.dram.rank0.writeEnergy              0                       # Energy for write commands per rank (pJ) (Joule)
system.mem_ctrl.dram.rank0.refreshEnergy 20519756400.000004                       # Energy for refresh commands per rank (pJ) (Joule)
system.mem_ctrl.dram.rank0.actBackEnergy   3834001260                       # Energy for active background per rank (pJ) (Joule)
system.mem_ctrl.dram.rank0.preBackEnergy  96590121120                       # Energy for precharge background per rank (pJ) (Joule)
system.mem_ctrl.dram.rank0.actPowerDownEnergy            0                       # Energy for active power-down per rank (pJ) (Joule)
system.mem_ctrl.dram.rank0.prePowerDownEnergy            0                       # Energy for precharge power-down per rank (pJ) (Joule)
system.mem_ctrl.dram.rank0.selfRefreshEnergy            0                       # Energy for self refresh per rank (pJ) (Joule)
system.mem_ctrl.dram.rank0.totalEnergy   120961108980                       # Total energy per rank (pJ) (Joule)
system.mem_ctrl.dram.rank0.averagePower    465.334059                       # Core power per rank (mW) (Watt)
system.mem_ctrl.dram.rank0.totalIdleTime            0                       # Total Idle time Per DRAM Rank (Tick)
system.mem_ctrl.dram.rank0.pwrStateTime::IDLE 251077200500                       # Time in different power states (Tick)
system.mem_ctrl.dram.rank0.pwrStateTime::REF   8680100000                       # Time in different power states (Tick)
system.mem_ctrl.dram.rank0.pwrStateTime::SREF            0                       # Time in different power states (Tick)
system.mem_ctrl.dram.rank0.pwrStateTime::PRE_PDN            0                       # Time in different power states (Tick)
system.mem_ctrl.dram.rank0.pwrStateTime::ACT    187370500                       # Time in different power states (Tick)
system.mem_ctrl.dram.rank0.pwrStateTime::ACT_PDN            0                       # Time in different power states (Tick)
system.mem_ctrl.dram.rank1.actEnergy          2177700                       # Energy for activate commands per rank (pJ) (Joule)
system.mem_ctrl.dram.rank1.preEnergy          1149885                       # Energy for precharge commands per rank (pJ) (Joule)
system.mem_ctrl.dram.rank1.readEnergy        13266120                       # Energy for read commands per rank (pJ) (Joule)
system.mem_ctrl.dram.rank1.writeEnergy              0                       # Energy for write commands per rank (pJ) (Joule)
system.mem_ctrl.dram.rank1.refreshEnergy 20519756400.000004                       # Energy for refresh commands per rank (pJ) (Joule)
system.mem_ctrl.dram.rank1.actBackEnergy   3846605100                       # Energy for active background per rank (pJ) (Joule)
system.mem_ctrl.dram.rank1.preBackEnergy  96579507360                       # Energy for precharge background per rank (pJ) (Joule)
system.mem_ctrl.dram.rank1.actPowerDownEnergy            0                       # Energy for active power-down per rank (pJ) (Joule)
system.mem_ctrl.dram.rank1.prePowerDownEnergy            0                       # Energy for precharge power-down per rank (pJ) (Joule)
system.mem_ctrl.dram.rank1.selfRefreshEnergy            0                       # Energy for self refresh per rank (pJ) (Joule)
system.mem_ctrl.dram.rank1.totalEnergy   120962462565                       # Total energy per rank (pJ) (Joule)
system.mem_ctrl.dram.rank1.averagePower    465.339267                       # Core power per rank (mW) (Watt)
system.mem_ctrl.dram.rank1.totalIdleTime            0                       # Total Idle time Per DRAM Rank (Tick)
system.mem_ctrl.dram.rank1.pwrStateTime::IDLE 251049268000                       # Time in different power states (Tick)
system.mem_ctrl.dram.rank1.pwrStateTime::REF   8680100000                       # Time in different power states (Tick)
system.mem_ctrl.dram.rank1.pwrStateTime::SREF            0                       # Time in different power states (Tick)
system.mem_ctrl.dram.rank1.pwrStateTime::PRE_PDN            0                       # Time in different power states (Tick)
system.mem_ctrl.dram.rank1.pwrStateTime::ACT    215303000                       # Time in different power states (Tick)
system.mem_ctrl.dram.rank1.pwrStateTime::ACT_PDN            0                       # Time in different power states (Tick)
system.mem_ctrl.power_state.pwrStateResidencyTicks::UNDEFINED 259944671000                       # Cumulative time (in ticks) in various power states (Tick)
system.membus.transDist::ReadResp                3288                       # Transaction distribution (Count)
system.membus.transDist::ReadExReq                584                       # Transaction distribution (Count)
system.membus.transDist::ReadExResp               584                       # Transaction distribution (Count)
system.membus.transDist::ReadSharedReq           3288                       # Transaction distribution (Count)
system.membus.pktCount_system.l2cache.mem_side_port::system.mem_ctrl.port         7744                       # Packet count per connected requestor and responder (Count)
system.membus.pktCount_system.l2cache.mem_side_port::total         7744                       # Packet count per connected requestor and responder (Count)
system.membus.pktCount::total                    7744                       # Packet count per connected requestor and responder (Count)
system.membus.pktSize_system.l2cache.mem_side_port::system.mem_ctrl.port       247808                       # Cumulative packet size per connected requestor and responder (Byte)
system.membus.pktSize_system.l2cache.mem_side_port::total       247808                       # Cumulative packet size per connected requestor and responder (Byte)
system.membus.pktSize::total                   247808                       # Cumulative packet size per connected requestor and responder (Byte)
system.membus.snoops                                0                       # Total snoops (Count)
system.membus.snoopTraffic                          0                       # Total snoop traffic (Byte)
system.membus.snoopFanout::samples               3872                       # Request fanout histogram (Count)
system.membus.snoopFanout::mean                     0                       # Request fanout histogram (Count)
system.membus.snoopFanout::stdev                    0                       # Request fanout histogram (Count)
system.membus.snoopFanout::underflows               0      0.00%      0.00% # Request fanout histogram (Count)
system.membus.snoopFanout::0                     3872    100.00%    100.00% # Request fanout histogram (Count)
system.membus.snoopFanout::1                        0      0.00%    100.00% # Request fanout histogram (Count)
system.membus.snoopFanout::overflows                0      0.00%    100.00% # Request fanout histogram (Count)
system.membus.snoopFanout::min_value                0                       # Request fanout histogram (Count)
system.membus.snoopFanout::max_value                0                       # Request fanout histogram (Count)
system.membus.snoopFanout::total                 3872                       # Request fanout histogram (Count)
system.membus.power_state.pwrStateResidencyTicks::UNDEFINED 259944671000                       # Cumulative time (in ticks) in various power states (Tick)
system.membus.reqLayer2.occupancy             1936000                       # Layer occupancy (ticks) (Tick)
system.membus.reqLayer2.utilization               0.0                       # Layer utilization (Ratio)
system.membus.respLayer0.occupancy           10536750                       # Layer occupancy (ticks) (Tick)
system.membus.respLayer0.utilization              0.0                       # Layer utilization (Ratio)
system.membus.snoop_filter.totRequests           3872                       # Total number of requests made to the snoop filter. (Count)
system.membus.snoop_filter.hitSingleRequests            0                       # Number of requests hitting in the snoop filter with a single holder of the requested data. (Count)
system.membus.snoop_filter.hitMultiRequests            0                       # Number of requests hitting in the snoop filter with multiple (>1) holders of the requested data. (Count)
system.membus.snoop_filter.totSnoops                0                       # Total number of snoops made to the snoop filter. (Count)
system.membus.snoop_filter.hitSingleSnoops            0                       # Number of snoops hitting in the snoop filter with a single holder of the requested data. (Count)
system.membus.snoop_filter.hitMultiSnoops            0                       # Number of snoops hitting in the snoop filter with multiple (>1) holders of the requested data. (Count)
system.workload.inst.arm                            0                       # number of arm instructions executed (Count)
system.workload.inst.quiesce                        0                       # number of quiesce instructions executed (Count)

---------- End Simulation Statistics   ----------
