
---------- Begin Simulation Statistics ----------
simSeconds                                   0.263039                       # Number of seconds simulated (Second)
simTicks                                 263038942000                       # Number of ticks simulated (Tick)
finalTick                                263038942000                       # Number of ticks from beginning of simulation (restored from checkpoints and never reset) (Tick)
simFreq                                  1000000000000                       # The number of ticks per simulated second ((Tick/Second))
hostSeconds                                  13921.20                       # Real time elapsed on the host (Second)
hostTickRate                                 18894844                       # The number of ticks simulated per host second (ticks/s) ((Tick/Second))
hostMemory                                    1203328                       # Number of bytes of host memory used (Byte)
simInsts                                    685048767                       # Number of instructions simulated (Count)
simOps                                     1324124270                       # Number of ops (including micro ops) simulated (Count)
hostInstRate                                    49209                       # Simulator instruction rate (inst/s) ((Count/Second))
hostOpRate                                      95116                       # Simulator op (including micro ops) rate (op/s) ((Count/Second))
system.clk_domain.clock                           500                       # Clock period in ticks (Tick)
system.clk_domain.voltage_domain.voltage            1                       # Voltage in Volts (Volt)
system.cpu.numCycles                        412991359                       # Number of cpu cycles simulated (Cycle)
system.cpu.numWorkItemsStarted                      0                       # Number of work items this cpu started (Count)
system.cpu.numWorkItemsCompleted                    0                       # Number of work items this cpu completed (Count)
system.cpu.instsAdded                      1472613772                       # Number of instructions added to the IQ (excludes non-spec) (Count)
system.cpu.nonSpecInstsAdded                       19                       # Number of non-speculative instructions added to the IQ (Count)
system.cpu.instsIssued                     1445010190                       # Number of instructions issued (Count)
system.cpu.squashedInstsIssued                  10447                       # Number of squashed instructions issued (Count)
system.cpu.squashedInstsExamined            148489515                       # Number of squashed instructions iterated over during squash; mainly for profiling (Count)
system.cpu.squashedOperandsExamined         164346427                       # Number of squashed operands that are examined and possibly removed from graph (Count)
system.cpu.squashedNonSpecRemoved                   1                       # Number of squashed non-spec instructions that were removed (Count)
system.cpu.numIssuedDist::samples           411689480                       # Number of insts issued each cycle (Count)
system.cpu.numIssuedDist::mean               3.509952                       # Number of insts issued each cycle (Count)
system.cpu.numIssuedDist::stdev              2.607292                       # Number of insts issued each cycle (Count)
system.cpu.numIssuedDist::underflows                0      0.00%      0.00% # Number of insts issued each cycle (Count)
system.cpu.numIssuedDist::0                  77845856     18.91%     18.91% # Number of insts issued each cycle (Count)
system.cpu.numIssuedDist::1                  49461704     12.01%     30.92% # Number of insts issued each cycle (Count)
system.cpu.numIssuedDist::2                  33306094      8.09%     39.01% # Number of insts issued each cycle (Count)
system.cpu.numIssuedDist::3                  43161723     10.48%     49.50% # Number of insts issued each cycle (Count)
system.cpu.numIssuedDist::4                  46920986     11.40%     60.89% # Number of insts issued each cycle (Count)
system.cpu.numIssuedDist::5                  49232852     11.96%     72.85% # Number of insts issued each cycle (Count)
system.cpu.numIssuedDist::6                  46201211     11.22%     84.08% # Number of insts issued each cycle (Count)
system.cpu.numIssuedDist::7                  36076773      8.76%     92.84% # Number of insts issued each cycle (Count)
system.cpu.numIssuedDist::8                  29482281      7.16%    100.00% # Number of insts issued each cycle (Count)
system.cpu.numIssuedDist::overflows                 0      0.00%    100.00% # Number of insts issued each cycle (Count)
system.cpu.numIssuedDist::min_value                 0                       # Number of insts issued each cycle (Count)
system.cpu.numIssuedDist::max_value                 8                       # Number of insts issued each cycle (Count)
system.cpu.numIssuedDist::total             411689480                       # Number of insts issued each cycle (Count)
system.cpu.statFuBusy::No_OpClass                   0      0.00%      0.00% # attempts to use FU when none available (Count)
system.cpu.statFuBusy::IntAlu                15914555     98.58%     98.58% # attempts to use FU when none available (Count)
system.cpu.statFuBusy::IntMult                      0      0.00%     98.58% # attempts to use FU when none available (Count)
system.cpu.statFuBusy::IntDiv                       0      0.00%     98.58% # attempts to use FU when none available (Count)
system.cpu.statFuBusy::FloatAdd                     0      0.00%     98.58% # attempts to use FU when none available (Count)
system.cpu.statFuBusy::FloatCmp                     0      0.00%     98.58% # attempts to use FU when none available (Count)
system.cpu.statFuBusy::FloatCvt                     0      0.00%     98.58% # attempts to use FU when none available (Count)
system.cpu.statFuBusy::FloatMult                    0      0.00%     98.58% # attempts to use FU when none available (Count)
system.cpu.statFuBusy::FloatMultAcc                 0      0.00%     98.58% # attempts to use FU when none available (Count)
system.cpu.statFuBusy::FloatDiv                     0      0.00%     98.58% # attempts to use FU when none available (Count)
system.cpu.statFuBusy::FloatMisc                    0      0.00%     98.58% # attempts to use FU when none available (Count)
system.cpu.statFuBusy::FloatSqrt                    0      0.00%     98.58% # attempts to use FU when none available (Count)
system.cpu.statFuBusy::SimdAdd                      1      0.00%     98.58% # attempts to use FU when none available (Count)
system.cpu.statFuBusy::SimdAddAcc                   0      0.00%     98.58% # attempts to use FU when none available (Count)
system.cpu.statFuBusy::SimdAlu                     16      0.00%     98.58% # attempts to use FU when none available (Count)
system.cpu.statFuBusy::SimdCmp                      0      0.00%     98.58% # attempts to use FU when none available (Count)
system.cpu.statFuBusy::SimdCvt                     20      0.00%     98.58% # attempts to use FU when none available (Count)
system.cpu.statFuBusy::SimdMisc                     3      0.00%     98.58% # attempts to use FU when none available (Count)
system.cpu.statFuBusy::SimdMult                     0      0.00%     98.58% # attempts to use FU when none available (Count)
system.cpu.statFuBusy::SimdMultAcc                  0      0.00%     98.58% # attempts to use FU when none available (Count)
system.cpu.statFuBusy::SimdShift                    2      0.00%     98.58% # attempts to use FU when none available (Count)
system.cpu.statFuBusy::SimdShiftAcc                 0      0.00%     98.58% # attempts to use FU when none available (Count)
system.cpu.statFuBusy::SimdDiv                      0      0.00%     98.58% # attempts to use FU when none available (Count)
system.cpu.statFuBusy::SimdSqrt                     0      0.00%     98.58% # attempts to use FU when none available (Count)
system.cpu.statFuBusy::SimdFloatAdd                 0      0.00%     98.58% # attempts to use FU when none available (Count)
system.cpu.statFuBusy::SimdFloatAlu                 0      0.00%     98.58% # attempts to use FU when none available (Count)
system.cpu.statFuBusy::SimdFloatCmp                 0      0.00%     98.58% # attempts to use FU when none available (Count)
system.cpu.statFuBusy::SimdFloatCvt                 0      0.00%     98.58% # attempts to use FU when none available (Count)
system.cpu.statFuBusy::SimdFloatDiv                 0      0.00%     98.58% # attempts to use FU when none available (Count)
system.cpu.statFuBusy::SimdFloatMisc                0      0.00%     98.58% # attempts to use FU when none available (Count)
system.cpu.statFuBusy::SimdFloatMult                0      0.00%     98.58% # attempts to use FU when none available (Count)
system.cpu.statFuBusy::SimdFloatMultAcc             0      0.00%     98.58% # attempts to use FU when none available (Count)
system.cpu.statFuBusy::SimdFloatSqrt                0      0.00%     98.58% # attempts to use FU when none available (Count)
system.cpu.statFuBusy::SimdReduceAdd                0      0.00%     98.58% # attempts to use FU when none available (Count)
system.cpu.statFuBusy::SimdReduceAlu                0      0.00%     98.58% # attempts to use FU when none available (Count)
system.cpu.statFuBusy::SimdReduceCmp                0      0.00%     98.58% # attempts to use FU when none available (Count)
system.cpu.statFuBusy::SimdFloatReduceAdd            0      0.00%     98.58% # attempts to use FU when none available (Count)
system.cpu.statFuBusy::SimdFloatReduceCmp            0      0.00%     98.58% # attempts to use FU when none available (Count)
system.cpu.statFuBusy::SimdAes                      0      0.00%     98.58% # attempts to use FU when none available (Count)
system.cpu.statFuBusy::SimdAesMix                   0      0.00%     98.58% # attempts to use FU when none available (Count)
system.cpu.statFuBusy::SimdSha1Hash                 0      0.00%     98.58% # attempts to use FU when none available (Count)
system.cpu.statFuBusy::SimdSha1Hash2                0      0.00%     98.58% # attempts to use FU when none available (Count)
system.cpu.statFuBusy::SimdSha256Hash               0      0.00%     98.58% # attempts to use FU when none available (Count)
system.cpu.statFuBusy::SimdSha256Hash2              0      0.00%     98.58% # attempts to use FU when none available (Count)
system.cpu.statFuBusy::SimdShaSigma2                0      0.00%     98.58% # attempts to use FU when none available (Count)
system.cpu.statFuBusy::SimdShaSigma3                0      0.00%     98.58% # attempts to use FU when none available (Count)
system.cpu.statFuBusy::SimdPredAlu                  0      0.00%     98.58% # attempts to use FU when none available (Count)
system.cpu.statFuBusy::MemRead                   1118      0.01%     98.59% # attempts to use FU when none available (Count)
system.cpu.statFuBusy::MemWrite                227593      1.41%    100.00% # attempts to use FU when none available (Count)
system.cpu.statFuBusy::FloatMemRead                20      0.00%    100.00% # attempts to use FU when none available (Count)
system.cpu.statFuBusy::FloatMemWrite               30      0.00%    100.00% # attempts to use FU when none available (Count)
system.cpu.statFuBusy::IprAccess                    0      0.00%    100.00% # attempts to use FU when none available (Count)
system.cpu.statFuBusy::InstPrefetch                 0      0.00%    100.00% # attempts to use FU when none available (Count)
system.cpu.statIssuedInstType_0::No_OpClass     20465807      1.42%      1.42% # Number of instructions issued per FU type, per thread (Count)
system.cpu.statIssuedInstType_0::IntAlu    1098380605     76.01%     77.43% # Number of instructions issued per FU type, per thread (Count)
system.cpu.statIssuedInstType_0::IntMult        65333      0.00%     77.43% # Number of instructions issued per FU type, per thread (Count)
system.cpu.statIssuedInstType_0::IntDiv        200329      0.01%     77.45% # Number of instructions issued per FU type, per thread (Count)
system.cpu.statIssuedInstType_0::FloatAdd        28990      0.00%     77.45% # Number of instructions issued per FU type, per thread (Count)
system.cpu.statIssuedInstType_0::FloatCmp            0      0.00%     77.45% # Number of instructions issued per FU type, per thread (Count)
system.cpu.statIssuedInstType_0::FloatCvt           32      0.00%     77.45% # Number of instructions issued per FU type, per thread (Count)
system.cpu.statIssuedInstType_0::FloatMult            0      0.00%     77.45% # Number of instructions issued per FU type, per thread (Count)
system.cpu.statIssuedInstType_0::FloatMultAcc            0      0.00%     77.45% # Number of instructions issued per FU type, per thread (Count)
system.cpu.statIssuedInstType_0::FloatDiv            0      0.00%     77.45% # Number of instructions issued per FU type, per thread (Count)
system.cpu.statIssuedInstType_0::FloatMisc            0      0.00%     77.45% # Number of instructions issued per FU type, per thread (Count)
system.cpu.statIssuedInstType_0::FloatSqrt            0      0.00%     77.45% # Number of instructions issued per FU type, per thread (Count)
system.cpu.statIssuedInstType_0::SimdAdd          479      0.00%     77.45% # Number of instructions issued per FU type, per thread (Count)
system.cpu.statIssuedInstType_0::SimdAddAcc            0      0.00%     77.45% # Number of instructions issued per FU type, per thread (Count)
system.cpu.statIssuedInstType_0::SimdAlu       114844      0.01%     77.46% # Number of instructions issued per FU type, per thread (Count)
system.cpu.statIssuedInstType_0::SimdCmp            0      0.00%     77.46% # Number of instructions issued per FU type, per thread (Count)
system.cpu.statIssuedInstType_0::SimdCvt       114806      0.01%     77.46% # Number of instructions issued per FU type, per thread (Count)
system.cpu.statIssuedInstType_0::SimdMisc       256693      0.02%     77.48% # Number of instructions issued per FU type, per thread (Count)
system.cpu.statIssuedInstType_0::SimdMult            0      0.00%     77.48% # Number of instructions issued per FU type, per thread (Count)
system.cpu.statIssuedInstType_0::SimdMultAcc            0      0.00%     77.48% # Number of instructions issued per FU type, per thread (Count)
system.cpu.statIssuedInstType_0::SimdShift          319      0.00%     77.48% # Number of instructions issued per FU type, per thread (Count)
system.cpu.statIssuedInstType_0::SimdShiftAcc            0      0.00%     77.48% # Number of instructions issued per FU type, per thread (Count)
system.cpu.statIssuedInstType_0::SimdDiv            0      0.00%     77.48% # Number of instructions issued per FU type, per thread (Count)
system.cpu.statIssuedInstType_0::SimdSqrt            0      0.00%     77.48% # Number of instructions issued per FU type, per thread (Count)
system.cpu.statIssuedInstType_0::SimdFloatAdd            0      0.00%     77.48% # Number of instructions issued per FU type, per thread (Count)
system.cpu.statIssuedInstType_0::SimdFloatAlu            0      0.00%     77.48% # Number of instructions issued per FU type, per thread (Count)
system.cpu.statIssuedInstType_0::SimdFloatCmp            0      0.00%     77.48% # Number of instructions issued per FU type, per thread (Count)
system.cpu.statIssuedInstType_0::SimdFloatCvt            0      0.00%     77.48% # Number of instructions issued per FU type, per thread (Count)
system.cpu.statIssuedInstType_0::SimdFloatDiv            0      0.00%     77.48% # Number of instructions issued per FU type, per thread (Count)
system.cpu.statIssuedInstType_0::SimdFloatMisc            0      0.00%     77.48% # Number of instructions issued per FU type, per thread (Count)
system.cpu.statIssuedInstType_0::SimdFloatMult            0      0.00%     77.48% # Number of instructions issued per FU type, per thread (Count)
system.cpu.statIssuedInstType_0::SimdFloatMultAcc            0      0.00%     77.48% # Number of instructions issued per FU type, per thread (Count)
system.cpu.statIssuedInstType_0::SimdFloatSqrt            0      0.00%     77.48% # Number of instructions issued per FU type, per thread (Count)
system.cpu.statIssuedInstType_0::SimdReduceAdd            0      0.00%     77.48% # Number of instructions issued per FU type, per thread (Count)
system.cpu.statIssuedInstType_0::SimdReduceAlu            0      0.00%     77.48% # Number of instructions issued per FU type, per thread (Count)
system.cpu.statIssuedInstType_0::SimdReduceCmp            0      0.00%     77.48% # Number of instructions issued per FU type, per thread (Count)
system.cpu.statIssuedInstType_0::SimdFloatReduceAdd            0      0.00%     77.48% # Number of instructions issued per FU type, per thread (Count)
system.cpu.statIssuedInstType_0::SimdFloatReduceCmp            0      0.00%     77.48% # Number of instructions issued per FU type, per thread (Count)
system.cpu.statIssuedInstType_0::SimdAes            0      0.00%     77.48% # Number of instructions issued per FU type, per thread (Count)
system.cpu.statIssuedInstType_0::SimdAesMix            0      0.00%     77.48% # Number of instructions issued per FU type, per thread (Count)
system.cpu.statIssuedInstType_0::SimdSha1Hash            0      0.00%     77.48% # Number of instructions issued per FU type, per thread (Count)
system.cpu.statIssuedInstType_0::SimdSha1Hash2            0      0.00%     77.48% # Number of instructions issued per FU type, per thread (Count)
system.cpu.statIssuedInstType_0::SimdSha256Hash            0      0.00%     77.48% # Number of instructions issued per FU type, per thread (Count)
system.cpu.statIssuedInstType_0::SimdSha256Hash2            0      0.00%     77.48% # Number of instructions issued per FU type, per thread (Count)
system.cpu.statIssuedInstType_0::SimdShaSigma2            0      0.00%     77.48% # Number of instructions issued per FU type, per thread (Count)
system.cpu.statIssuedInstType_0::SimdShaSigma3            0      0.00%     77.48% # Number of instructions issued per FU type, per thread (Count)
system.cpu.statIssuedInstType_0::SimdPredAlu            0      0.00%     77.48% # Number of instructions issued per FU type, per thread (Count)
system.cpu.statIssuedInstType_0::MemRead    223224028     15.45%     92.93% # Number of instructions issued per FU type, per thread (Count)
system.cpu.statIssuedInstType_0::MemWrite    102041051      7.06%     99.99% # Number of instructions issued per FU type, per thread (Count)
system.cpu.statIssuedInstType_0::FloatMemRead        87064      0.01%    100.00% # Number of instructions issued per FU type, per thread (Count)
system.cpu.statIssuedInstType_0::FloatMemWrite        29810      0.00%    100.00% # Number of instructions issued per FU type, per thread (Count)
system.cpu.statIssuedInstType_0::IprAccess            0      0.00%    100.00% # Number of instructions issued per FU type, per thread (Count)
system.cpu.statIssuedInstType_0::InstPrefetch            0      0.00%    100.00% # Number of instructions issued per FU type, per thread (Count)
system.cpu.statIssuedInstType_0::total     1445010190                       # Number of instructions issued per FU type, per thread (Count)
system.cpu.issueRate                         3.498887                       # Inst issue rate ((Count/Cycle))
system.cpu.fuBusy                            16143358                       # FU busy when requested (Count)
system.cpu.fuBusyRate                        0.011172                       # FU busy rate (busy events/executed inst) ((Count/Count))
system.cpu.intInstQueueReads               3316426341                       # Number of integer instruction queue reads (Count)
system.cpu.intInstQueueWrites              1620383276                       # Number of integer instruction queue writes (Count)
system.cpu.intInstQueueWakeupAccesses      1428658290                       # Number of integer instruction queue wakeup accesses (Count)
system.cpu.fpInstQueueReads                   1437324                       # Number of floating instruction queue reads (Count)
system.cpu.fpInstQueueWrites                   725543                       # Number of floating instruction queue writes (Count)
system.cpu.fpInstQueueWakeupAccesses           718030                       # Number of floating instruction queue wakeup accesses (Count)
system.cpu.vecInstQueueReads                        0                       # Number of vector instruction queue reads (Count)
system.cpu.vecInstQueueWrites                       0                       # Number of vector instruction queue writes (Count)
system.cpu.vecInstQueueWakeupAccesses               0                       # Number of vector instruction queue wakeup accesses (Count)
system.cpu.intAluAccesses                  1439969051                       # Number of integer alu accesses (Count)
system.cpu.fpAluAccesses                       718690                       # Number of floating point alu accesses (Count)
system.cpu.vecAluAccesses                           0                       # Number of vector alu accesses (Count)
system.cpu.numInsts                        1432168884                       # Number of executed instructions (Count)
system.cpu.numLoadInsts                     219263276                       # Number of load instructions executed (Count)
system.cpu.numSquashedInsts                  12841306                       # Number of squashed instructions skipped in execute (Count)
system.cpu.numSwp                                   0                       # Number of swp insts executed (Count)
system.cpu.numNop                                   0                       # Number of nop insts executed (Count)
system.cpu.numRefs                          320432925                       # Number of memory reference insts executed (Count)
system.cpu.numBranches                      148859748                       # Number of branches executed (Count)
system.cpu.numStoreInsts                    101169649                       # Number of stores executed (Count)
system.cpu.numRate                           3.467794                       # Inst execution rate ((Count/Cycle))
system.cpu.timesIdled                          344276                       # Number of times that the entire CPU went into an idle state and unscheduled itself (Count)
system.cpu.idleCycles                         1301879                       # Total number of cycles that the CPU has spent unscheduled due to idling (Cycle)
system.cpu.quiesceCycles                    113086526                       # Total number of cycles that CPU has spent quiesced or waiting for an interrupt (Cycle)
system.cpu.committedInsts                   685048767                       # Number of Instructions Simulated (Count)
system.cpu.committedOps                    1324124270                       # Number of Ops (including micro ops) Simulated (Count)
system.cpu.cpi                               0.602864                       # CPI: Cycles Per Instruction ((Cycle/Count))
system.cpu.totalCpi                          0.602864                       # CPI: Total CPI of All Threads ((Cycle/Count))
system.cpu.ipc                               1.658748                       # IPC: Instructions Per Cycle ((Count/Cycle))
system.cpu.totalIpc                          1.658748                       # IPC: Total IPC of All Threads ((Count/Cycle))
system.cpu.intRegfileReads                 1646850894                       # Number of integer regfile reads (Count)
system.cpu.intRegfileWrites                1047999683                       # Number of integer regfile writes (Count)
system.cpu.fpRegfileReads                     1260966                       # Number of floating regfile reads (Count)
system.cpu.fpRegfileWrites                     630977                       # Number of floating regfile writes (Count)
system.cpu.ccRegfileReads                   671778531                       # number of cc regfile reads (Count)
system.cpu.ccRegfileWrites                  448876398                       # number of cc regfile writes (Count)
system.cpu.miscRegfileReads                 646158001                       # number of misc regfile reads (Count)
system.cpu.miscRegfileWrites                       18                       # number of misc regfile writes (Count)
system.cpu.MemDepUnit__0.insertedLoads      227535698                       # Number of loads inserted to the mem dependence unit. (Count)
system.cpu.MemDepUnit__0.insertedStores     104864015                       # Number of stores inserted to the mem dependence unit. (Count)
system.cpu.MemDepUnit__0.conflictingLoads     13680483                       # Number of conflicting loads. (Count)
system.cpu.MemDepUnit__0.conflictingStores      8627781                       # Number of conflicting stores. (Count)
system.cpu.MemDepUnit__1.insertedLoads              0                       # Number of loads inserted to the mem dependence unit. (Count)
system.cpu.MemDepUnit__1.insertedStores             0                       # Number of stores inserted to the mem dependence unit. (Count)
system.cpu.MemDepUnit__1.conflictingLoads            0                       # Number of conflicting loads. (Count)
system.cpu.MemDepUnit__1.conflictingStores            0                       # Number of conflicting stores. (Count)
system.cpu.MemDepUnit__2.insertedLoads              0                       # Number of loads inserted to the mem dependence unit. (Count)
system.cpu.MemDepUnit__2.insertedStores             0                       # Number of stores inserted to the mem dependence unit. (Count)
system.cpu.MemDepUnit__2.conflictingLoads            0                       # Number of conflicting loads. (Count)
system.cpu.MemDepUnit__2.conflictingStores            0                       # Number of conflicting stores. (Count)
system.cpu.MemDepUnit__3.insertedLoads              0                       # Number of loads inserted to the mem dependence unit. (Count)
system.cpu.MemDepUnit__3.insertedStores             0                       # Number of stores inserted to the mem dependence unit. (Count)
system.cpu.MemDepUnit__3.conflictingLoads            0                       # Number of conflicting loads. (Count)
system.cpu.MemDepUnit__3.conflictingStores            0                       # Number of conflicting stores. (Count)
system.cpu.branchPred.lookups               164295526                       # Number of BP lookups (Count)
system.cpu.branchPred.condPredicted         129515177                       # Number of conditional branches predicted (Count)
system.cpu.branchPred.condIncorrect           6509553                       # Number of conditional branches incorrect (Count)
system.cpu.branchPred.BTBLookups             63601934                       # Number of BTB lookups (Count)
system.cpu.branchPred.BTBUpdates              2421968                       # Number of BTB updates (Count)
system.cpu.branchPred.BTBHits                63390432                       # Number of BTB hits (Count)
system.cpu.branchPred.BTBHitRatio            0.996675                       # BTB Hit Ratio (Ratio)
system.cpu.branchPred.RASUsed                11534203                       # Number of times the RAS was used to get a target. (Count)
system.cpu.branchPred.RASIncorrect                879                       # Number of incorrect RAS predictions. (Count)
system.cpu.branchPred.indirectLookups         9500785                       # Number of indirect predictor lookups. (Count)
system.cpu.branchPred.indirectHits            9494611                       # Number of indirect target hits. (Count)
system.cpu.branchPred.indirectMisses             6174                       # Number of indirect misses. (Count)
system.cpu.branchPred.indirectMispredicted        28773                       # Number of mispredicted indirect branches. (Count)
system.cpu.commit.commitSquashedInsts       140505242                       # The number of squashed insts skipped by commit (Count)
system.cpu.commit.commitNonSpecStalls              18                       # The number of times commit has been forced to stall to communicate backwards (Count)
system.cpu.commit.branchMispredicts           6466734                       # The number of times a branch was mispredicted (Count)
system.cpu.commit.numCommittedDist::samples    390710016                       # Number of insts commited each cycle (Count)
system.cpu.commit.numCommittedDist::mean     3.389021                       # Number of insts commited each cycle (Count)
system.cpu.commit.numCommittedDist::stdev     3.254688                       # Number of insts commited each cycle (Count)
system.cpu.commit.numCommittedDist::underflows            0      0.00%      0.00% # Number of insts commited each cycle (Count)
system.cpu.commit.numCommittedDist::0       116099656     29.72%     29.72% # Number of insts commited each cycle (Count)
system.cpu.commit.numCommittedDist::1        55291462     14.15%     43.87% # Number of insts commited each cycle (Count)
system.cpu.commit.numCommittedDist::2        21629878      5.54%     49.40% # Number of insts commited each cycle (Count)
system.cpu.commit.numCommittedDist::3        45037843     11.53%     60.93% # Number of insts commited each cycle (Count)
system.cpu.commit.numCommittedDist::4        11074953      2.83%     63.76% # Number of insts commited each cycle (Count)
system.cpu.commit.numCommittedDist::5        18906985      4.84%     68.60% # Number of insts commited each cycle (Count)
system.cpu.commit.numCommittedDist::6        12177306      3.12%     71.72% # Number of insts commited each cycle (Count)
system.cpu.commit.numCommittedDist::7         5374514      1.38%     73.10% # Number of insts commited each cycle (Count)
system.cpu.commit.numCommittedDist::8       105117419     26.90%    100.00% # Number of insts commited each cycle (Count)
system.cpu.commit.numCommittedDist::overflows            0      0.00%    100.00% # Number of insts commited each cycle (Count)
system.cpu.commit.numCommittedDist::min_value            0                       # Number of insts commited each cycle (Count)
system.cpu.commit.numCommittedDist::max_value            8                       # Number of insts commited each cycle (Count)
system.cpu.commit.numCommittedDist::total    390710016                       # Number of insts commited each cycle (Count)
system.cpu.commit.instsCommitted            685048767                       # Number of instructions committed (Count)
system.cpu.commit.opsCommitted             1324124270                       # Number of ops (including micro ops) committed (Count)
system.cpu.commit.memRefs                   305030173                       # Number of memory references committed (Count)
system.cpu.commit.loads                     209682612                       # Number of loads committed (Count)
system.cpu.commit.amos                              0                       # Number of atomic instructions committed (Count)
system.cpu.commit.membars                           0                       # Number of memory barriers committed (Count)
system.cpu.commit.branches                  141580954                       # Number of branches committed (Count)
system.cpu.commit.vectorInstructions                0                       # Number of committed Vector instructions. (Count)
system.cpu.commit.floating                     715699                       # Number of committed floating point instructions. (Count)
system.cpu.commit.integer                  1303634564                       # Number of committed integer instructions. (Count)
system.cpu.commit.functionCalls              10328377                       # Number of function calls committed. (Count)
system.cpu.commit.committedInstType_0::No_OpClass     19047485      1.44%      1.44% # Class of committed instruction (Count)
system.cpu.commit.committedInstType_0::IntAlu    999271971     75.47%     76.91% # Class of committed instruction (Count)
system.cpu.commit.committedInstType_0::IntMult        59919      0.00%     76.91% # Class of committed instruction (Count)
system.cpu.commit.committedInstType_0::IntDiv       200198      0.02%     76.92% # Class of committed instruction (Count)
system.cpu.commit.committedInstType_0::FloatAdd        28795      0.00%     76.93% # Class of committed instruction (Count)
system.cpu.commit.committedInstType_0::FloatCmp            0      0.00%     76.93% # Class of committed instruction (Count)
system.cpu.commit.committedInstType_0::FloatCvt           32      0.00%     76.93% # Class of committed instruction (Count)
system.cpu.commit.committedInstType_0::FloatMult            0      0.00%     76.93% # Class of committed instruction (Count)
system.cpu.commit.committedInstType_0::FloatMultAcc            0      0.00%     76.93% # Class of committed instruction (Count)
system.cpu.commit.committedInstType_0::FloatDiv            0      0.00%     76.93% # Class of committed instruction (Count)
system.cpu.commit.committedInstType_0::FloatMisc            0      0.00%     76.93% # Class of committed instruction (Count)
system.cpu.commit.committedInstType_0::FloatSqrt            0      0.00%     76.93% # Class of committed instruction (Count)
system.cpu.commit.committedInstType_0::SimdAdd          350      0.00%     76.93% # Class of committed instruction (Count)
system.cpu.commit.committedInstType_0::SimdAddAcc            0      0.00%     76.93% # Class of committed instruction (Count)
system.cpu.commit.committedInstType_0::SimdAlu       114332      0.01%     76.94% # Class of committed instruction (Count)
system.cpu.commit.committedInstType_0::SimdCmp            0      0.00%     76.94% # Class of committed instruction (Count)
system.cpu.commit.committedInstType_0::SimdCvt       114394      0.01%     76.94% # Class of committed instruction (Count)
system.cpu.commit.committedInstType_0::SimdMisc       256518      0.02%     76.96% # Class of committed instruction (Count)
system.cpu.commit.committedInstType_0::SimdMult            0      0.00%     76.96% # Class of committed instruction (Count)
system.cpu.commit.committedInstType_0::SimdMultAcc            0      0.00%     76.96% # Class of committed instruction (Count)
system.cpu.commit.committedInstType_0::SimdShift          103      0.00%     76.96% # Class of committed instruction (Count)
system.cpu.commit.committedInstType_0::SimdShiftAcc            0      0.00%     76.96% # Class of committed instruction (Count)
system.cpu.commit.committedInstType_0::SimdDiv            0      0.00%     76.96% # Class of committed instruction (Count)
system.cpu.commit.committedInstType_0::SimdSqrt            0      0.00%     76.96% # Class of committed instruction (Count)
system.cpu.commit.committedInstType_0::SimdFloatAdd            0      0.00%     76.96% # Class of committed instruction (Count)
system.cpu.commit.committedInstType_0::SimdFloatAlu            0      0.00%     76.96% # Class of committed instruction (Count)
system.cpu.commit.committedInstType_0::SimdFloatCmp            0      0.00%     76.96% # Class of committed instruction (Count)
system.cpu.commit.committedInstType_0::SimdFloatCvt            0      0.00%     76.96% # Class of committed instruction (Count)
system.cpu.commit.committedInstType_0::SimdFloatDiv            0      0.00%     76.96% # Class of committed instruction (Count)
system.cpu.commit.committedInstType_0::SimdFloatMisc            0      0.00%     76.96% # Class of committed instruction (Count)
system.cpu.commit.committedInstType_0::SimdFloatMult            0      0.00%     76.96% # Class of committed instruction (Count)
system.cpu.commit.committedInstType_0::SimdFloatMultAcc            0      0.00%     76.96% # Class of committed instruction (Count)
system.cpu.commit.committedInstType_0::SimdFloatSqrt            0      0.00%     76.96% # Class of committed instruction (Count)
system.cpu.commit.committedInstType_0::SimdReduceAdd            0      0.00%     76.96% # Class of committed instruction (Count)
system.cpu.commit.committedInstType_0::SimdReduceAlu            0      0.00%     76.96% # Class of committed instruction (Count)
system.cpu.commit.committedInstType_0::SimdReduceCmp            0      0.00%     76.96% # Class of committed instruction (Count)
system.cpu.commit.committedInstType_0::SimdFloatReduceAdd            0      0.00%     76.96% # Class of committed instruction (Count)
system.cpu.commit.committedInstType_0::SimdFloatReduceCmp            0      0.00%     76.96% # Class of committed instruction (Count)
system.cpu.commit.committedInstType_0::SimdAes            0      0.00%     76.96% # Class of committed instruction (Count)
system.cpu.commit.committedInstType_0::SimdAesMix            0      0.00%     76.96% # Class of committed instruction (Count)
system.cpu.commit.committedInstType_0::SimdSha1Hash            0      0.00%     76.96% # Class of committed instruction (Count)
system.cpu.commit.committedInstType_0::SimdSha1Hash2            0      0.00%     76.96% # Class of committed instruction (Count)
system.cpu.commit.committedInstType_0::SimdSha256Hash            0      0.00%     76.96% # Class of committed instruction (Count)
system.cpu.commit.committedInstType_0::SimdSha256Hash2            0      0.00%     76.96% # Class of committed instruction (Count)
system.cpu.commit.committedInstType_0::SimdShaSigma2            0      0.00%     76.96% # Class of committed instruction (Count)
system.cpu.commit.committedInstType_0::SimdShaSigma3            0      0.00%     76.96% # Class of committed instruction (Count)
system.cpu.commit.committedInstType_0::SimdPredAlu            0      0.00%     76.96% # Class of committed instruction (Count)
system.cpu.commit.committedInstType_0::MemRead    209596497     15.83%     92.79% # Class of committed instruction (Count)
system.cpu.commit.committedInstType_0::MemWrite     95318010      7.20%     99.99% # Class of committed instruction (Count)
system.cpu.commit.committedInstType_0::FloatMemRead        86115      0.01%    100.00% # Class of committed instruction (Count)
system.cpu.commit.committedInstType_0::FloatMemWrite        29551      0.00%    100.00% # Class of committed instruction (Count)
system.cpu.commit.committedInstType_0::IprAccess            0      0.00%    100.00% # Class of committed instruction (Count)
system.cpu.commit.committedInstType_0::InstPrefetch            0      0.00%    100.00% # Class of committed instruction (Count)
system.cpu.commit.committedInstType_0::total   1324124270                       # Class of committed instruction (Count)
system.cpu.commit.commitEligibleSamples     105117419                       # number cycles where commit BW limit reached (Cycle)
system.cpu.dcache.demandHits::cpu.data      287700936                       # number of demand (read+write) hits (Count)
system.cpu.dcache.demandHits::total         287700936                       # number of demand (read+write) hits (Count)
system.cpu.dcache.overallHits::cpu.data     287700936                       # number of overall hits (Count)
system.cpu.dcache.overallHits::total        287700936                       # number of overall hits (Count)
system.cpu.dcache.demandMisses::cpu.data        12681                       # number of demand (read+write) misses (Count)
system.cpu.dcache.demandMisses::total           12681                       # number of demand (read+write) misses (Count)
system.cpu.dcache.overallMisses::cpu.data        12681                       # number of overall misses (Count)
system.cpu.dcache.overallMisses::total          12681                       # number of overall misses (Count)
system.cpu.dcache.demandMissLatency::cpu.data    732700000                       # number of demand (read+write) miss ticks (Tick)
system.cpu.dcache.demandMissLatency::total    732700000                       # number of demand (read+write) miss ticks (Tick)
system.cpu.dcache.overallMissLatency::cpu.data    732700000                       # number of overall miss ticks (Tick)
system.cpu.dcache.overallMissLatency::total    732700000                       # number of overall miss ticks (Tick)
system.cpu.dcache.demandAccesses::cpu.data    287713617                       # number of demand (read+write) accesses (Count)
system.cpu.dcache.demandAccesses::total     287713617                       # number of demand (read+write) accesses (Count)
system.cpu.dcache.overallAccesses::cpu.data    287713617                       # number of overall (read+write) accesses (Count)
system.cpu.dcache.overallAccesses::total    287713617                       # number of overall (read+write) accesses (Count)
system.cpu.dcache.demandMissRate::cpu.data     0.000044                       # miss rate for demand accesses (Ratio)
system.cpu.dcache.demandMissRate::total      0.000044                       # miss rate for demand accesses (Ratio)
system.cpu.dcache.overallMissRate::cpu.data     0.000044                       # miss rate for overall accesses (Ratio)
system.cpu.dcache.overallMissRate::total     0.000044                       # miss rate for overall accesses (Ratio)
system.cpu.dcache.demandAvgMissLatency::cpu.data 57779.354940                       # average overall miss latency in ticks ((Tick/Count))
system.cpu.dcache.demandAvgMissLatency::total 57779.354940                       # average overall miss latency in ticks ((Tick/Count))
system.cpu.dcache.overallAvgMissLatency::cpu.data 57779.354940                       # average overall miss latency ((Tick/Count))
system.cpu.dcache.overallAvgMissLatency::total 57779.354940                       # average overall miss latency ((Tick/Count))
system.cpu.dcache.blockedCycles::no_mshrs        15788                       # number of cycles access was blocked (Cycle)
system.cpu.dcache.blockedCycles::no_targets           35                       # number of cycles access was blocked (Cycle)
system.cpu.dcache.blockedCauses::no_mshrs          307                       # number of times access was blocked (Count)
system.cpu.dcache.blockedCauses::no_targets            1                       # number of times access was blocked (Count)
system.cpu.dcache.avgBlocked::no_mshrs      51.426710                       # average number of cycles each access was blocked ((Cycle/Count))
system.cpu.dcache.avgBlocked::no_targets           35                       # average number of cycles each access was blocked ((Cycle/Count))
system.cpu.dcache.writebacks::writebacks          626                       # number of writebacks (Count)
system.cpu.dcache.writebacks::total               626                       # number of writebacks (Count)
system.cpu.dcache.demandMshrHits::cpu.data         9666                       # number of demand (read+write) MSHR hits (Count)
system.cpu.dcache.demandMshrHits::total          9666                       # number of demand (read+write) MSHR hits (Count)
system.cpu.dcache.overallMshrHits::cpu.data         9666                       # number of overall MSHR hits (Count)
system.cpu.dcache.overallMshrHits::total         9666                       # number of overall MSHR hits (Count)
system.cpu.dcache.demandMshrMisses::cpu.data         3015                       # number of demand (read+write) MSHR misses (Count)
system.cpu.dcache.demandMshrMisses::total         3015                       # number of demand (read+write) MSHR misses (Count)
system.cpu.dcache.overallMshrMisses::cpu.data         3015                       # number of overall MSHR misses (Count)
system.cpu.dcache.overallMshrMisses::total         3015                       # number of overall MSHR misses (Count)
system.cpu.dcache.demandMshrMissLatency::cpu.data    196729500                       # number of demand (read+write) MSHR miss ticks (Tick)
system.cpu.dcache.demandMshrMissLatency::total    196729500                       # number of demand (read+write) MSHR miss ticks (Tick)
system.cpu.dcache.overallMshrMissLatency::cpu.data    196729500                       # number of overall MSHR miss ticks (Tick)
system.cpu.dcache.overallMshrMissLatency::total    196729500                       # number of overall MSHR miss ticks (Tick)
system.cpu.dcache.demandMshrMissRate::cpu.data     0.000010                       # mshr miss ratio for demand accesses (Ratio)
system.cpu.dcache.demandMshrMissRate::total     0.000010                       # mshr miss ratio for demand accesses (Ratio)
system.cpu.dcache.overallMshrMissRate::cpu.data     0.000010                       # mshr miss ratio for overall accesses (Ratio)
system.cpu.dcache.overallMshrMissRate::total     0.000010                       # mshr miss ratio for overall accesses (Ratio)
system.cpu.dcache.demandAvgMshrMissLatency::cpu.data 65250.248756                       # average overall mshr miss latency ((Tick/Count))
system.cpu.dcache.demandAvgMshrMissLatency::total 65250.248756                       # average overall mshr miss latency ((Tick/Count))
system.cpu.dcache.overallAvgMshrMissLatency::cpu.data 65250.248756                       # average overall mshr miss latency ((Tick/Count))
system.cpu.dcache.overallAvgMshrMissLatency::total 65250.248756                       # average overall mshr miss latency ((Tick/Count))
system.cpu.dcache.replacements                   1991                       # number of replacements (Count)
system.cpu.dcache.ReadReq.hits::cpu.data    192354033                       # number of ReadReq hits (Count)
system.cpu.dcache.ReadReq.hits::total       192354033                       # number of ReadReq hits (Count)
system.cpu.dcache.ReadReq.misses::cpu.data        12023                       # number of ReadReq misses (Count)
system.cpu.dcache.ReadReq.misses::total         12023                       # number of ReadReq misses (Count)
system.cpu.dcache.ReadReq.missLatency::cpu.data    688546500                       # number of ReadReq miss ticks (Tick)
system.cpu.dcache.ReadReq.missLatency::total    688546500                       # number of ReadReq miss ticks (Tick)
system.cpu.dcache.ReadReq.accesses::cpu.data    192366056                       # number of ReadReq accesses(hits+misses) (Count)
system.cpu.dcache.ReadReq.accesses::total    192366056                       # number of ReadReq accesses(hits+misses) (Count)
system.cpu.dcache.ReadReq.missRate::cpu.data     0.000063                       # miss rate for ReadReq accesses (Ratio)
system.cpu.dcache.ReadReq.missRate::total     0.000063                       # miss rate for ReadReq accesses (Ratio)
system.cpu.dcache.ReadReq.avgMissLatency::cpu.data 57269.109207                       # average ReadReq miss latency ((Tick/Count))
system.cpu.dcache.ReadReq.avgMissLatency::total 57269.109207                       # average ReadReq miss latency ((Tick/Count))
system.cpu.dcache.ReadReq.mshrHits::cpu.data         9660                       # number of ReadReq MSHR hits (Count)
system.cpu.dcache.ReadReq.mshrHits::total         9660                       # number of ReadReq MSHR hits (Count)
system.cpu.dcache.ReadReq.mshrMisses::cpu.data         2363                       # number of ReadReq MSHR misses (Count)
system.cpu.dcache.ReadReq.mshrMisses::total         2363                       # number of ReadReq MSHR misses (Count)
system.cpu.dcache.ReadReq.mshrMissLatency::cpu.data    153535500                       # number of ReadReq MSHR miss ticks (Tick)
system.cpu.dcache.ReadReq.mshrMissLatency::total    153535500                       # number of ReadReq MSHR miss ticks (Tick)
system.cpu.dcache.ReadReq.mshrMissRate::cpu.data     0.000012                       # mshr miss rate for ReadReq accesses (Ratio)
system.cpu.dcache.ReadReq.mshrMissRate::total     0.000012                       # mshr miss rate for ReadReq accesses (Ratio)
system.cpu.dcache.ReadReq.avgMshrMissLatency::cpu.data 64974.820144                       # average ReadReq mshr miss latency ((Tick/Count))
system.cpu.dcache.ReadReq.avgMshrMissLatency::total 64974.820144                       # average ReadReq mshr miss latency ((Tick/Count))
system.cpu.dcache.WriteReq.hits::cpu.data     95346903                       # number of WriteReq hits (Count)
system.cpu.dcache.WriteReq.hits::total       95346903                       # number of WriteReq hits (Count)
system.cpu.dcache.WriteReq.misses::cpu.data          658                       # number of WriteReq misses (Count)
system.cpu.dcache.WriteReq.misses::total          658                       # number of WriteReq misses (Count)
system.cpu.dcache.WriteReq.missLatency::cpu.data     44153500                       # number of WriteReq miss ticks (Tick)
system.cpu.dcache.WriteReq.missLatency::total     44153500                       # number of WriteReq miss ticks (Tick)
system.cpu.dcache.WriteReq.accesses::cpu.data     95347561                       # number of WriteReq accesses(hits+misses) (Count)
system.cpu.dcache.WriteReq.accesses::total     95347561                       # number of WriteReq accesses(hits+misses) (Count)
system.cpu.dcache.WriteReq.missRate::cpu.data     0.000007                       # miss rate for WriteReq accesses (Ratio)
system.cpu.dcache.WriteReq.missRate::total     0.000007                       # miss rate for WriteReq accesses (Ratio)
system.cpu.dcache.WriteReq.avgMissLatency::cpu.data 67102.583587                       # average WriteReq miss latency ((Tick/Count))
system.cpu.dcache.WriteReq.avgMissLatency::total 67102.583587                       # average WriteReq miss latency ((Tick/Count))
system.cpu.dcache.WriteReq.mshrHits::cpu.data            6                       # number of WriteReq MSHR hits (Count)
system.cpu.dcache.WriteReq.mshrHits::total            6                       # number of WriteReq MSHR hits (Count)
system.cpu.dcache.WriteReq.mshrMisses::cpu.data          652                       # number of WriteReq MSHR misses (Count)
system.cpu.dcache.WriteReq.mshrMisses::total          652                       # number of WriteReq MSHR misses (Count)
system.cpu.dcache.WriteReq.mshrMissLatency::cpu.data     43194000                       # number of WriteReq MSHR miss ticks (Tick)
system.cpu.dcache.WriteReq.mshrMissLatency::total     43194000                       # number of WriteReq MSHR miss ticks (Tick)
system.cpu.dcache.WriteReq.mshrMissRate::cpu.data     0.000007                       # mshr miss rate for WriteReq accesses (Ratio)
system.cpu.dcache.WriteReq.mshrMissRate::total     0.000007                       # mshr miss rate for WriteReq accesses (Ratio)
system.cpu.dcache.WriteReq.avgMshrMissLatency::cpu.data 66248.466258                       # average WriteReq mshr miss latency ((Tick/Count))
system.cpu.dcache.WriteReq.avgMshrMissLatency::total 66248.466258                       # average WriteReq mshr miss latency ((Tick/Count))
system.cpu.dcache.power_state.pwrStateResidencyTicks::UNDEFINED 263038942000                       # Cumulative time (in ticks) in various power states (Tick)
system.cpu.dcache.tags.tagsInUse          1023.799966                       # Average ticks per tags in use ((Tick/Count))
system.cpu.dcache.tags.totalRefs            287703951                       # Total number of references to valid blocks. (Count)
system.cpu.dcache.tags.sampledRefs               3015                       # Sample count of references to valid blocks. (Count)
system.cpu.dcache.tags.avgRefs           95424.196020                       # Average number of references to valid blocks. ((Count/Count))
system.cpu.dcache.tags.warmupTick              168000                       # The tick when the warmup percentage was hit. (Tick)
system.cpu.dcache.tags.occupancies::cpu.data  1023.799966                       # Average occupied blocks per tick, per requestor ((Count/Tick))
system.cpu.dcache.tags.avgOccs::cpu.data     0.999805                       # Average percentage of cache occupancy ((Ratio/Tick))
system.cpu.dcache.tags.avgOccs::total        0.999805                       # Average percentage of cache occupancy ((Ratio/Tick))
system.cpu.dcache.tags.occupanciesTaskId::1024         1024                       # Occupied blocks per task id (Count)
system.cpu.dcache.tags.ageTaskId_1024::0           47                       # Occupied blocks per task id, per block age (Count)
system.cpu.dcache.tags.ageTaskId_1024::4          977                       # Occupied blocks per task id, per block age (Count)
system.cpu.dcache.tags.ratioOccsTaskId::1024            1                       # Ratio of occupied blocks and all blocks, per task id (Ratio)
system.cpu.dcache.tags.tagAccesses          575430249                       # Number of tag accesses (Count)
system.cpu.dcache.tags.dataAccesses         575430249                       # Number of data accesses (Count)
system.cpu.dcache.tags.power_state.pwrStateResidencyTicks::UNDEFINED 263038942000                       # Cumulative time (in ticks) in various power states (Tick)
system.cpu.decode.idleCycles                153922146                       # Number of cycles decode is idle (Cycle)
system.cpu.decode.blockedCycles              14505588                       # Number of cycles decode is blocked (Cycle)
system.cpu.decode.runCycles                 233063820                       # Number of cycles decode is running (Cycle)
system.cpu.decode.unblockCycles               3527368                       # Number of cycles decode is unblocking (Cycle)
system.cpu.decode.squashCycles                6670558                       # Number of cycles decode is squashing (Cycle)
system.cpu.decode.branchResolved             62822956                       # Number of times decode resolved a branch (Count)
system.cpu.decode.branchMispred                 56671                       # Number of times decode detected a branch misprediction (Count)
system.cpu.decode.decodedInsts             1553262703                       # Number of instructions handled by decode (Count)
system.cpu.decode.squashedInsts                149410                       # Number of squashed instructions handled by decode (Count)
system.cpu.fetch.icacheStallCycles          141675296                       # Number of cycles fetch is stalled on an Icache miss (Cycle)
system.cpu.fetch.insts                      821804783                       # Number of instructions fetch has processed (Count)
system.cpu.fetch.branches                   164295526                       # Number of branches that fetch encountered (Count)
system.cpu.fetch.predictedBranches           84419246                       # Number of branches that fetch has predicted taken (Count)
system.cpu.fetch.cycles                     263296010                       # Number of cycles fetch has run and was not squashing or blocked (Cycle)
system.cpu.fetch.squashCycles                13427630                       # Number of cycles fetch has spent squashing (Cycle)
system.cpu.fetch.miscStallCycles                  696                       # Number of cycles fetch has spent waiting on interrupts, or bad addresses, or out of MSHRs (Cycle)
system.cpu.fetch.pendingTrapStallCycles          3654                       # Number of stall cycles due to pending traps (Cycle)
system.cpu.fetch.icacheWaitRetryStallCycles            9                       # Number of stall cycles due to full MSHR (Cycle)
system.cpu.fetch.cacheLines                 123947843                       # Number of cache lines fetched (Count)
system.cpu.fetch.icacheSquashes               3045289                       # Number of outstanding Icache misses that were squashed (Count)
system.cpu.fetch.nisnDist::samples          411689480                       # Number of instructions fetched each cycle (Total) (Count)
system.cpu.fetch.nisnDist::mean              3.830534                       # Number of instructions fetched each cycle (Total) (Count)
system.cpu.fetch.nisnDist::stdev             3.588586                       # Number of instructions fetched each cycle (Total) (Count)
system.cpu.fetch.nisnDist::underflows               0      0.00%      0.00% # Number of instructions fetched each cycle (Total) (Count)
system.cpu.fetch.nisnDist::0                170407640     41.39%     41.39% # Number of instructions fetched each cycle (Total) (Count)
system.cpu.fetch.nisnDist::1                  8668385      2.11%     43.50% # Number of instructions fetched each cycle (Total) (Count)
system.cpu.fetch.nisnDist::2                  8889519      2.16%     45.66% # Number of instructions fetched each cycle (Total) (Count)
system.cpu.fetch.nisnDist::3                  9587676      2.33%     47.99% # Number of instructions fetched each cycle (Total) (Count)
system.cpu.fetch.nisnDist::4                 15099708      3.67%     51.65% # Number of instructions fetched each cycle (Total) (Count)
system.cpu.fetch.nisnDist::5                 24471084      5.94%     57.60% # Number of instructions fetched each cycle (Total) (Count)
system.cpu.fetch.nisnDist::6                 24411385      5.93%     63.53% # Number of instructions fetched each cycle (Total) (Count)
system.cpu.fetch.nisnDist::7                  8675164      2.11%     65.63% # Number of instructions fetched each cycle (Total) (Count)
system.cpu.fetch.nisnDist::8                141478919     34.37%    100.00% # Number of instructions fetched each cycle (Total) (Count)
system.cpu.fetch.nisnDist::overflows                0      0.00%    100.00% # Number of instructions fetched each cycle (Total) (Count)
system.cpu.fetch.nisnDist::min_value                0                       # Number of instructions fetched each cycle (Total) (Count)
system.cpu.fetch.nisnDist::max_value                8                       # Number of instructions fetched each cycle (Total) (Count)
system.cpu.fetch.nisnDist::total            411689480                       # Number of instructions fetched each cycle (Total) (Count)
system.cpu.fetch.branchRate                  0.397818                       # Number of branch fetches per cycle (Ratio)
system.cpu.fetch.rate                        1.989884                       # Number of inst fetches per cycle ((Count/Cycle))
system.cpu.icache.demandHits::cpu.inst      123182405                       # number of demand (read+write) hits (Count)
system.cpu.icache.demandHits::total         123182405                       # number of demand (read+write) hits (Count)
system.cpu.icache.overallHits::cpu.inst     123182405                       # number of overall hits (Count)
system.cpu.icache.overallHits::total        123182405                       # number of overall hits (Count)
system.cpu.icache.demandMisses::cpu.inst       765438                       # number of demand (read+write) misses (Count)
system.cpu.icache.demandMisses::total          765438                       # number of demand (read+write) misses (Count)
system.cpu.icache.overallMisses::cpu.inst       765438                       # number of overall misses (Count)
system.cpu.icache.overallMisses::total         765438                       # number of overall misses (Count)
system.cpu.icache.demandMissLatency::cpu.inst   9724253999                       # number of demand (read+write) miss ticks (Tick)
system.cpu.icache.demandMissLatency::total   9724253999                       # number of demand (read+write) miss ticks (Tick)
system.cpu.icache.overallMissLatency::cpu.inst   9724253999                       # number of overall miss ticks (Tick)
system.cpu.icache.overallMissLatency::total   9724253999                       # number of overall miss ticks (Tick)
system.cpu.icache.demandAccesses::cpu.inst    123947843                       # number of demand (read+write) accesses (Count)
system.cpu.icache.demandAccesses::total     123947843                       # number of demand (read+write) accesses (Count)
system.cpu.icache.overallAccesses::cpu.inst    123947843                       # number of overall (read+write) accesses (Count)
system.cpu.icache.overallAccesses::total    123947843                       # number of overall (read+write) accesses (Count)
system.cpu.icache.demandMissRate::cpu.inst     0.006175                       # miss rate for demand accesses (Ratio)
system.cpu.icache.demandMissRate::total      0.006175                       # miss rate for demand accesses (Ratio)
system.cpu.icache.overallMissRate::cpu.inst     0.006175                       # miss rate for overall accesses (Ratio)
system.cpu.icache.overallMissRate::total     0.006175                       # miss rate for overall accesses (Ratio)
system.cpu.icache.demandAvgMissLatency::cpu.inst 12704.169376                       # average overall miss latency in ticks ((Tick/Count))
system.cpu.icache.demandAvgMissLatency::total 12704.169376                       # average overall miss latency in ticks ((Tick/Count))
system.cpu.icache.overallAvgMissLatency::cpu.inst 12704.169376                       # average overall miss latency ((Tick/Count))
system.cpu.icache.overallAvgMissLatency::total 12704.169376                       # average overall miss latency ((Tick/Count))
system.cpu.icache.blockedCycles::no_mshrs          174                       # number of cycles access was blocked (Cycle)
system.cpu.icache.blockedCycles::no_targets            0                       # number of cycles access was blocked (Cycle)
system.cpu.icache.blockedCauses::no_mshrs            4                       # number of times access was blocked (Count)
system.cpu.icache.blockedCauses::no_targets            0                       # number of times access was blocked (Count)
system.cpu.icache.avgBlocked::no_mshrs      43.500000                       # average number of cycles each access was blocked ((Cycle/Count))
system.cpu.icache.avgBlocked::no_targets          nan                       # average number of cycles each access was blocked ((Cycle/Count))
system.cpu.icache.writebacks::writebacks            1                       # number of writebacks (Count)
system.cpu.icache.writebacks::total                 1                       # number of writebacks (Count)
system.cpu.icache.demandMshrHits::cpu.inst        41360                       # number of demand (read+write) MSHR hits (Count)
system.cpu.icache.demandMshrHits::total         41360                       # number of demand (read+write) MSHR hits (Count)
system.cpu.icache.overallMshrHits::cpu.inst        41360                       # number of overall MSHR hits (Count)
system.cpu.icache.overallMshrHits::total        41360                       # number of overall MSHR hits (Count)
system.cpu.icache.demandMshrMisses::cpu.inst       724078                       # number of demand (read+write) MSHR misses (Count)
system.cpu.icache.demandMshrMisses::total       724078                       # number of demand (read+write) MSHR misses (Count)
system.cpu.icache.overallMshrMisses::cpu.inst       724078                       # number of overall MSHR misses (Count)
system.cpu.icache.overallMshrMisses::total       724078                       # number of overall MSHR misses (Count)
system.cpu.icache.demandMshrMissLatency::cpu.inst   8765301000                       # number of demand (read+write) MSHR miss ticks (Tick)
system.cpu.icache.demandMshrMissLatency::total   8765301000                       # number of demand (read+write) MSHR miss ticks (Tick)
system.cpu.icache.overallMshrMissLatency::cpu.inst   8765301000                       # number of overall MSHR miss ticks (Tick)
system.cpu.icache.overallMshrMissLatency::total   8765301000                       # number of overall MSHR miss ticks (Tick)
system.cpu.icache.demandMshrMissRate::cpu.inst     0.005842                       # mshr miss ratio for demand accesses (Ratio)
system.cpu.icache.demandMshrMissRate::total     0.005842                       # mshr miss ratio for demand accesses (Ratio)
system.cpu.icache.overallMshrMissRate::cpu.inst     0.005842                       # mshr miss ratio for overall accesses (Ratio)
system.cpu.icache.overallMshrMissRate::total     0.005842                       # mshr miss ratio for overall accesses (Ratio)
system.cpu.icache.demandAvgMshrMissLatency::cpu.inst 12105.465157                       # average overall mshr miss latency ((Tick/Count))
system.cpu.icache.demandAvgMshrMissLatency::total 12105.465157                       # average overall mshr miss latency ((Tick/Count))
system.cpu.icache.overallAvgMshrMissLatency::cpu.inst 12105.465157                       # average overall mshr miss latency ((Tick/Count))
system.cpu.icache.overallAvgMshrMissLatency::total 12105.465157                       # average overall mshr miss latency ((Tick/Count))
system.cpu.icache.replacements                 723949                       # number of replacements (Count)
system.cpu.icache.ReadReq.hits::cpu.inst    123182405                       # number of ReadReq hits (Count)
system.cpu.icache.ReadReq.hits::total       123182405                       # number of ReadReq hits (Count)
system.cpu.icache.ReadReq.misses::cpu.inst       765438                       # number of ReadReq misses (Count)
system.cpu.icache.ReadReq.misses::total        765438                       # number of ReadReq misses (Count)
system.cpu.icache.ReadReq.missLatency::cpu.inst   9724253999                       # number of ReadReq miss ticks (Tick)
system.cpu.icache.ReadReq.missLatency::total   9724253999                       # number of ReadReq miss ticks (Tick)
system.cpu.icache.ReadReq.accesses::cpu.inst    123947843                       # number of ReadReq accesses(hits+misses) (Count)
system.cpu.icache.ReadReq.accesses::total    123947843                       # number of ReadReq accesses(hits+misses) (Count)
system.cpu.icache.ReadReq.missRate::cpu.inst     0.006175                       # miss rate for ReadReq accesses (Ratio)
system.cpu.icache.ReadReq.missRate::total     0.006175                       # miss rate for ReadReq accesses (Ratio)
system.cpu.icache.ReadReq.avgMissLatency::cpu.inst 12704.169376                       # average ReadReq miss latency ((Tick/Count))
system.cpu.icache.ReadReq.avgMissLatency::total 12704.169376                       # average ReadReq miss latency ((Tick/Count))
system.cpu.icache.ReadReq.mshrHits::cpu.inst        41360                       # number of ReadReq MSHR hits (Count)
system.cpu.icache.ReadReq.mshrHits::total        41360                       # number of ReadReq MSHR hits (Count)
system.cpu.icache.ReadReq.mshrMisses::cpu.inst       724078                       # number of ReadReq MSHR misses (Count)
system.cpu.icache.ReadReq.mshrMisses::total       724078                       # number of ReadReq MSHR misses (Count)
system.cpu.icache.ReadReq.mshrMissLatency::cpu.inst   8765301000                       # number of ReadReq MSHR miss ticks (Tick)
system.cpu.icache.ReadReq.mshrMissLatency::total   8765301000                       # number of ReadReq MSHR miss ticks (Tick)
system.cpu.icache.ReadReq.mshrMissRate::cpu.inst     0.005842                       # mshr miss rate for ReadReq accesses (Ratio)
system.cpu.icache.ReadReq.mshrMissRate::total     0.005842                       # mshr miss rate for ReadReq accesses (Ratio)
system.cpu.icache.ReadReq.avgMshrMissLatency::cpu.inst 12105.465157                       # average ReadReq mshr miss latency ((Tick/Count))
system.cpu.icache.ReadReq.avgMshrMissLatency::total 12105.465157                       # average ReadReq mshr miss latency ((Tick/Count))
system.cpu.icache.power_state.pwrStateResidencyTicks::UNDEFINED 263038942000                       # Cumulative time (in ticks) in various power states (Tick)
system.cpu.icache.tags.tagsInUse           127.996788                       # Average ticks per tags in use ((Tick/Count))
system.cpu.icache.tags.totalRefs            123906482                       # Total number of references to valid blocks. (Count)
system.cpu.icache.tags.sampledRefs             724077                       # Sample count of references to valid blocks. (Count)
system.cpu.icache.tags.avgRefs             171.123350                       # Average number of references to valid blocks. ((Count/Count))
system.cpu.icache.tags.warmupTick               82000                       # The tick when the warmup percentage was hit. (Tick)
system.cpu.icache.tags.occupancies::cpu.inst   127.996788                       # Average occupied blocks per tick, per requestor ((Count/Tick))
system.cpu.icache.tags.avgOccs::cpu.inst     0.999975                       # Average percentage of cache occupancy ((Ratio/Tick))
system.cpu.icache.tags.avgOccs::total        0.999975                       # Average percentage of cache occupancy ((Ratio/Tick))
system.cpu.icache.tags.occupanciesTaskId::1024          128                       # Occupied blocks per task id (Count)
system.cpu.icache.tags.ageTaskId_1024::0           97                       # Occupied blocks per task id, per block age (Count)
system.cpu.icache.tags.ageTaskId_1024::1            1                       # Occupied blocks per task id, per block age (Count)
system.cpu.icache.tags.ageTaskId_1024::2            1                       # Occupied blocks per task id, per block age (Count)
system.cpu.icache.tags.ageTaskId_1024::4           29                       # Occupied blocks per task id, per block age (Count)
system.cpu.icache.tags.ratioOccsTaskId::1024            1                       # Ratio of occupied blocks and all blocks, per task id (Ratio)
system.cpu.icache.tags.tagAccesses          248619763                       # Number of tag accesses (Count)
system.cpu.icache.tags.dataAccesses         248619763                       # Number of data accesses (Count)
system.cpu.icache.tags.power_state.pwrStateResidencyTicks::UNDEFINED 263038942000                       # Cumulative time (in ticks) in various power states (Tick)
system.cpu.iew.idleCycles                           0                       # Number of cycles IEW is idle (Cycle)
system.cpu.iew.squashCycles                   6670558                       # Number of cycles IEW is squashing (Cycle)
system.cpu.iew.blockCycles                   14379862                       # Number of cycles IEW is blocking (Cycle)
system.cpu.iew.unblockCycles                     4594                       # Number of cycles IEW is unblocking (Cycle)
system.cpu.iew.dispatchedInsts             1472613791                       # Number of instructions dispatched to IQ (Count)
system.cpu.iew.dispSquashedInsts                 2843                       # Number of squashed instructions skipped by dispatch (Count)
system.cpu.iew.dispLoadInsts                227535698                       # Number of dispatched load instructions (Count)
system.cpu.iew.dispStoreInsts               104864015                       # Number of dispatched store instructions (Count)
system.cpu.iew.dispNonSpecInsts                    19                       # Number of dispatched non-speculative instructions (Count)
system.cpu.iew.iqFullEvents                       780                       # Number of times the IQ has become full, causing a stall (Count)
system.cpu.iew.lsqFullEvents                     3425                       # Number of times the LSQ has become full, causing a stall (Count)
system.cpu.iew.memOrderViolationEvents           5928                       # Number of memory order violations (Count)
system.cpu.iew.predictedTakenIncorrect        4967556                       # Number of branches that were predicted taken incorrectly (Count)
system.cpu.iew.predictedNotTakenIncorrect      2760150                       # Number of branches that were predicted not taken incorrectly (Count)
system.cpu.iew.branchMispredicts              7727706                       # Number of branch mispredicts detected at execute (Count)
system.cpu.iew.instsToCommit               1430831076                       # Cumulative count of insts sent to commit (Count)
system.cpu.iew.writebackCount              1429376320                       # Cumulative count of insts written-back (Count)
system.cpu.iew.producerInst                1007375970                       # Number of instructions producing a value (Count)
system.cpu.iew.consumerInst                1492369296                       # Number of instructions consuming a value (Count)
system.cpu.iew.wbRate                        3.461032                       # Insts written-back per cycle ((Count/Cycle))
system.cpu.iew.wbFanout                      0.675018                       # Average fanout of values written-back ((Count/Count))
system.cpu.interrupts.clk_domain.clock           8000                       # Clock period in ticks (Tick)
system.cpu.lsq0.forwLoads                    26910590                       # Number of loads that had data forwarded from stores (Count)
system.cpu.lsq0.squashedLoads                17853086                       # Number of loads squashed (Count)
system.cpu.lsq0.ignoredResponses                 1174                       # Number of memory responses ignored because the instruction is squashed (Count)
system.cpu.lsq0.memOrderViolation                5928                       # Number of memory ordering violations (Count)
system.cpu.lsq0.squashedStores                9516454                       # Number of stores squashed (Count)
system.cpu.lsq0.rescheduledLoads                    0                       # Number of loads that were rescheduled (Count)
system.cpu.lsq0.blockedByCache                    231                       # Number of times an access to memory failed due to the cache being blocked (Count)
system.cpu.lsq0.loadToUse::samples          209682612                       # Distribution of cycle latency between the first time a load is issued and its completion (Unspecified)
system.cpu.lsq0.loadToUse::mean              3.137343                       # Distribution of cycle latency between the first time a load is issued and its completion (Unspecified)
system.cpu.lsq0.loadToUse::stdev             1.064644                       # Distribution of cycle latency between the first time a load is issued and its completion (Unspecified)
system.cpu.lsq0.loadToUse::0-9              209674237    100.00%    100.00% # Distribution of cycle latency between the first time a load is issued and its completion (Unspecified)
system.cpu.lsq0.loadToUse::10-19                  380      0.00%    100.00% # Distribution of cycle latency between the first time a load is issued and its completion (Unspecified)
system.cpu.lsq0.loadToUse::20-29                  465      0.00%    100.00% # Distribution of cycle latency between the first time a load is issued and its completion (Unspecified)
system.cpu.lsq0.loadToUse::30-39                  115      0.00%    100.00% # Distribution of cycle latency between the first time a load is issued and its completion (Unspecified)
system.cpu.lsq0.loadToUse::40-49                   93      0.00%    100.00% # Distribution of cycle latency between the first time a load is issued and its completion (Unspecified)
system.cpu.lsq0.loadToUse::50-59                   86      0.00%    100.00% # Distribution of cycle latency between the first time a load is issued and its completion (Unspecified)
system.cpu.lsq0.loadToUse::60-69                  132      0.00%    100.00% # Distribution of cycle latency between the first time a load is issued and its completion (Unspecified)
system.cpu.lsq0.loadToUse::70-79                  209      0.00%    100.00% # Distribution of cycle latency between the first time a load is issued and its completion (Unspecified)
system.cpu.lsq0.loadToUse::80-89                  257      0.00%    100.00% # Distribution of cycle latency between the first time a load is issued and its completion (Unspecified)
system.cpu.lsq0.loadToUse::90-99                  225      0.00%    100.00% # Distribution of cycle latency between the first time a load is issued and its completion (Unspecified)
system.cpu.lsq0.loadToUse::100-109                406      0.00%    100.00% # Distribution of cycle latency between the first time a load is issued and its completion (Unspecified)
system.cpu.lsq0.loadToUse::110-119                348      0.00%    100.00% # Distribution of cycle latency between the first time a load is issued and its completion (Unspecified)
system.cpu.lsq0.loadToUse::120-129                774      0.00%    100.00% # Distribution of cycle latency between the first time a load is issued and its completion (Unspecified)
system.cpu.lsq0.loadToUse::130-139               3449      0.00%    100.00% # Distribution of cycle latency between the first time a load is issued and its completion (Unspecified)
system.cpu.lsq0.loadToUse::140-149                458      0.00%    100.00% # Distribution of cycle latency between the first time a load is issued and its completion (Unspecified)
system.cpu.lsq0.loadToUse::150-159                236      0.00%    100.00% # Distribution of cycle latency between the first time a load is issued and its completion (Unspecified)
system.cpu.lsq0.loadToUse::160-169                326      0.00%    100.00% # Distribution of cycle latency between the first time a load is issued and its completion (Unspecified)
system.cpu.lsq0.loadToUse::170-179                 54      0.00%    100.00% # Distribution of cycle latency between the first time a load is issued and its completion (Unspecified)
system.cpu.lsq0.loadToUse::180-189                 68      0.00%    100.00% # Distribution of cycle latency between the first time a load is issued and its completion (Unspecified)
system.cpu.lsq0.loadToUse::190-199                157      0.00%    100.00% # Distribution of cycle latency between the first time a load is issued and its completion (Unspecified)
system.cpu.lsq0.loadToUse::200-209                 30      0.00%    100.00% # Distribution of cycle latency between the first time a load is issued and its completion (Unspecified)
system.cpu.lsq0.loadToUse::210-219                  1      0.00%    100.00% # Distribution of cycle latency between the first time a load is issued and its completion (Unspecified)
system.cpu.lsq0.loadToUse::250-259                  3      0.00%    100.00% # Distribution of cycle latency between the first time a load is issued and its completion (Unspecified)
system.cpu.lsq0.loadToUse::260-269                  4      0.00%    100.00% # Distribution of cycle latency between the first time a load is issued and its completion (Unspecified)
system.cpu.lsq0.loadToUse::280-289                  1      0.00%    100.00% # Distribution of cycle latency between the first time a load is issued and its completion (Unspecified)
system.cpu.lsq0.loadToUse::overflows               98      0.00%    100.00% # Distribution of cycle latency between the first time a load is issued and its completion (Unspecified)
system.cpu.lsq0.loadToUse::min_value                2                       # Distribution of cycle latency between the first time a load is issued and its completion (Unspecified)
system.cpu.lsq0.loadToUse::max_value              804                       # Distribution of cycle latency between the first time a load is issued and its completion (Unspecified)
system.cpu.lsq0.loadToUse::total            209682612                       # Distribution of cycle latency between the first time a load is issued and its completion (Unspecified)
system.cpu.mmu.dtb.rdAccesses               219276939                       # TLB accesses on read requests (Count)
system.cpu.mmu.dtb.wrAccesses               101169651                       # TLB accesses on write requests (Count)
[...]
system.mem_ctrl.dram.bytesWritten::total         1536                       # Number of bytes written to this memory (Byte)
system.mem_ctrl.dram.numReads::cpu.inst          1227                       # Number of read requests responded to by this memory (Count)
system.mem_ctrl.dram.numReads::cpu.data          2641                       # Number of read requests responded to by this memory (Count)
system.mem_ctrl.dram.numReads::total             3868                       # Number of read requests responded to by this memory (Count)
system.mem_ctrl.dram.numWrites::writebacks           24                       # Number of write requests responded to by this memory (Count)
system.mem_ctrl.dram.numWrites::total              24                       # Number of write requests responded to by this memory (Count)
system.mem_ctrl.dram.bwRead::cpu.inst          298541                       # Total read bandwidth from this memory ((Byte/Second))
system.mem_ctrl.dram.bwRead::cpu.data          642582                       # Total read bandwidth from this memory ((Byte/Second))
system.mem_ctrl.dram.bwRead::total             941123                       # Total read bandwidth from this memory ((Byte/Second))
system.mem_ctrl.dram.bwInstRead::cpu.inst       298541                       # Instruction read bandwidth from this memory ((Byte/Second))
system.mem_ctrl.dram.bwInstRead::total         298541                       # Instruction read bandwidth from this memory ((Byte/Second))
system.mem_ctrl.dram.bwWrite::writebacks         5839                       # Write bandwidth from this memory ((Byte/Second))
system.mem_ctrl.dram.bwWrite::total              5839                       # Write bandwidth from this memory ((Byte/Second))
system.mem_ctrl.dram.bwTotal::writebacks         5839                       # Total bandwidth to/from this memory ((Byte/Second))
system.mem_ctrl.dram.bwTotal::cpu.inst         298541                       # Total bandwidth to/from this memory ((Byte/Second))
system.mem_ctrl.dram.bwTotal::cpu.data         642582                       # Total bandwidth to/from this memory ((Byte/Second))
system.mem_ctrl.dram.bwTotal::total            946962                       # Total bandwidth to/from this memory ((Byte/Second))
system.mem_ctrl.dram.readBursts                  3868                       # Number of DRAM read bursts (Count)
system.mem_ctrl.dram.writeBursts                    0                       # Number of DRAM write bursts (Count)
system.mem_ctrl.dram.perBankRdBursts::0           353                       # Per bank write bursts (Count)
system.mem_ctrl.dram.perBankRdBursts::1           233                       # Per bank write bursts (Count)
system.mem_ctrl.dram.perBankRdBursts::2           317                       # Per bank write bursts (Count)
system.mem_ctrl.dram.perBankRdBursts::3           239                       # Per bank write bursts (Count)
system.mem_ctrl.dram.perBankRdBursts::4           302                       # Per bank write bursts (Count)
system.mem_ctrl.dram.perBankRdBursts::5           183                       # Per bank write bursts (Count)
system.mem_ctrl.dram.perBankRdBursts::6           199                       # Per bank write bursts (Count)
system.mem_ctrl.dram.perBankRdBursts::7           187                       # Per bank write bursts (Count)
system.mem_ctrl.dram.perBankRdBursts::8           228                       # Per bank write bursts (Count)
system.mem_ctrl.dram.perBankRdBursts::9           308                       # Per bank write bursts (Count)
system.mem_ctrl.dram.perBankRdBursts::10          235                       # Per bank write bursts (Count)
system.mem_ctrl.dram.perBankRdBursts::11          236                       # Per bank write bursts (Count)
system.mem_ctrl.dram.perBankRdBursts::12          201                       # Per bank write bursts (Count)
system.mem_ctrl.dram.perBankRdBursts::13          212                       # Per bank write bursts (Count)
system.mem_ctrl.dram.perBankRdBursts::14          188                       # Per bank write bursts (Count)
system.mem_ctrl.dram.perBankRdBursts::15          247                       # Per bank write bursts (Count)
system.mem_ctrl.dram.perBankWrBursts::0             0                       # Per bank write bursts (Count)
system.mem_ctrl.dram.perBankWrBursts::1             0                       # Per bank write bursts (Count)
system.mem_ctrl.dram.perBankWrBursts::2             0                       # Per bank write bursts (Count)
system.mem_ctrl.dram.perBankWrBursts::3             0                       # Per bank write bursts (Count)
system.mem_ctrl.dram.perBankWrBursts::4             0                       # Per bank write bursts (Count)
system.mem_ctrl.dram.perBankWrBursts::5             0                       # Per bank write bursts (Count)
system.mem_ctrl.dram.perBankWrBursts::6             0                       # Per bank write bursts (Count)
system.mem_ctrl.dram.perBankWrBursts::7             0                       # Per bank write bursts (Count)
system.mem_ctrl.dram.perBankWrBursts::8             0                       # Per bank write bursts (Count)
system.mem_ctrl.dram.perBankWrBursts::9             0                       # Per bank write bursts (Count)
system.mem_ctrl.dram.perBankWrBursts::10            0                       # Per bank write bursts (Count)
system.mem_ctrl.dram.perBankWrBursts::11            0                       # Per bank write bursts (Count)
system.mem_ctrl.dram.perBankWrBursts::12            0                       # Per bank write bursts (Count)
system.mem_ctrl.dram.perBankWrBursts::13            0                       # Per bank write bursts (Count)
system.mem_ctrl.dram.perBankWrBursts::14            0                       # Per bank write bursts (Count)
system.mem_ctrl.dram.perBankWrBursts::15            0                       # Per bank write bursts (Count)
system.mem_ctrl.dram.totQLat                 28086750                       # Total ticks spent queuing (Tick)
system.mem_ctrl.dram.totBusLat               19340000                       # Total ticks spent in databus transfers (Tick)
system.mem_ctrl.dram.totMemAccLat           100611750                       # Total ticks spent from burst creation until serviced by the DRAM (Tick)
system.mem_ctrl.dram.avgQLat                  7261.31                       # Average queueing delay per DRAM burst ((Tick/Count))
system.mem_ctrl.dram.avgBusLat                5000.00                       # Average bus latency per DRAM burst ((Tick/Count))
system.mem_ctrl.dram.avgMemAccLat            26011.31                       # Average memory access latency per DRAM burst ((Tick/Count))
system.mem_ctrl.dram.readRowHits                 3292                       # Number of row buffer hits during reads (Count)
system.mem_ctrl.dram.writeRowHits                   0                       # Number of row buffer hits during writes (Count)
system.mem_ctrl.dram.readRowHitRate             85.11                       # Row buffer hit rate for reads (Ratio)
system.mem_ctrl.dram.writeRowHitRate              nan                       # Row buffer hit rate for writes (Ratio)
system.mem_ctrl.dram.bytesPerActivate::samples          566                       # Bytes accessed per row activation (Byte)
system.mem_ctrl.dram.bytesPerActivate::mean   433.978799                       # Bytes accessed per row activation (Byte)
system.mem_ctrl.dram.bytesPerActivate::gmean   265.739453                       # Bytes accessed per row activation (Byte)
system.mem_ctrl.dram.bytesPerActivate::stdev   376.650219                       # Bytes accessed per row activation (Byte)
system.mem_ctrl.dram.bytesPerActivate::0-127          140     24.73%     24.73% # Bytes accessed per row activation (Byte)
system.mem_ctrl.dram.bytesPerActivate::128-255          119     21.02%     45.76% # Bytes accessed per row activation (Byte)
system.mem_ctrl.dram.bytesPerActivate::256-383           59     10.42%     56.18% # Bytes accessed per row activation (Byte)
system.mem_ctrl.dram.bytesPerActivate::384-511           37      6.54%     62.72% # Bytes accessed per row activation (Byte)
system.mem_ctrl.dram.bytesPerActivate::512-639           32      5.65%     68.37% # Bytes accessed per row activation (Byte)
system.mem_ctrl.dram.bytesPerActivate::640-767           21      3.71%     72.08% # Bytes accessed per row activation (Byte)
system.mem_ctrl.dram.bytesPerActivate::768-895           18      3.18%     75.27% # Bytes accessed per row activation (Byte)
system.mem_ctrl.dram.bytesPerActivate::896-1023           25      4.42%     79.68% # Bytes accessed per row activation (Byte)
system.mem_ctrl.dram.bytesPerActivate::1024-1151          115     20.32%    100.00% # Bytes accessed per row activation (Byte)
system.mem_ctrl.dram.bytesPerActivate::total          566                       # Bytes accessed per row activation (Byte)
system.mem_ctrl.dram.bytesRead                 247552                       # Total bytes read (Byte)
system.mem_ctrl.dram.bytesWritten                   0                       # Total bytes written (Byte)
system.mem_ctrl.dram.avgRdBW                 0.941123                       # Average DRAM read bandwidth in MiBytes/s ((Byte/Second))
system.mem_ctrl.dram.avgWrBW                        0                       # Average DRAM write bandwidth in MiBytes/s ((Byte/Second))
system.mem_ctrl.dram.peakBW                  12800.00                       # Theoretical peak bandwidth in MiByte/s ((Byte/Second))
system.mem_ctrl.dram.busUtil                     0.01                       # Data bus utilization in percentage (Ratio)
system.mem_ctrl.dram.busUtilRead                 0.01                       # Data bus utilization in percentage for reads (Ratio)
system.mem_ctrl.dram.busUtilWrite                0.00                       # Data bus utilization in percentage for writes (Ratio)
system.mem_ctrl.dram.pageHitRate                85.11                       # Row buffer hit rate, read and write combined (Ratio)
system.mem_ctrl.dram.power_state.pwrStateResidencyTicks::UNDEFINED 263038942000                       # Cumulative time (in ticks) in various power states (Tick)
system.mem_ctrl.dram.rank0.actEnergy          1906380                       # Energy for activate commands per rank (pJ) (Joule)
system.mem_ctrl.dram.rank0.preEnergy          1001880                       # Energy for precharge commands per rank (pJ) (Joule)
system.mem_ctrl.dram.rank0.readEnergy        14372820                       # Energy for read commands per rank (pJ) (Joule)
system.mem_ctrl.dram.rank0.writeEnergy              0                       # Energy for write commands per rank (pJ) (Joule)
system.mem_ctrl.dram.rank0.refreshEnergy 20763768480.000004                       # Energy for refresh commands per rank (pJ) (Joule)
system.mem_ctrl.dram.rank0.actBackEnergy   3883964040                       # Energy for active background per rank (pJ) (Joule)
system.mem_ctrl.dram.rank0.preBackEnergy  97736247360                       # Energy for precharge background per rank (pJ) (Joule)
system.mem_ctrl.dram.rank0.actPowerDownEnergy            0                       # Energy for active power-down per rank (pJ) (Joule)
system.mem_ctrl.dram.rank0.prePowerDownEnergy            0                       # Energy for precharge power-down per rank (pJ) (Joule)
system.mem_ctrl.dram.rank0.selfRefreshEnergy            0                       # Energy for self refresh per rank (pJ) (Joule)
system.mem_ctrl.dram.rank0.totalEnergy   122401260960                       # Total energy per rank (pJ) (Joule)
system.mem_ctrl.dram.rank0.averagePower    465.335133                       # Core power per rank (mW) (Watt)
system.mem_ctrl.dram.rank0.totalIdleTime            0                       # Total Idle time Per DRAM Rank (Tick)
system.mem_ctrl.dram.rank0.pwrStateTime::IDLE 254056448500                       # Time in different power states (Tick)
system.mem_ctrl.dram.rank0.pwrStateTime::REF   8783320000                       # Time in different power states (Tick)
system.mem_ctrl.dram.rank0.pwrStateTime::SREF            0                       # Time in different power states (Tick)
system.mem_ctrl.dram.rank0.pwrStateTime::PRE_PDN            0                       # Time in different power states (Tick)
system.mem_ctrl.dram.rank0.pwrStateTime::ACT    199173500                       # Time in different power states (Tick)
system.mem_ctrl.dram.rank0.pwrStateTime::ACT_PDN            0                       # Time in different power states (Tick)
system.mem_ctrl.dram.rank1.actEnergy          2206260                       # Energy for activate commands per rank (pJ) (Joule)
system.mem_ctrl.dram.rank1.preEnergy          1146090                       # Energy for precharge commands per rank (pJ) (Joule)
system.mem_ctrl.dram.rank1.readEnergy        13244700                       # Energy for read commands per rank (pJ) (Joule)
system.mem_ctrl.dram.rank1.writeEnergy              0                       # Energy for write commands per rank (pJ) (Joule)
system.mem_ctrl.dram.rank1.refreshEnergy 20763768480.000004                       # Energy for refresh commands per rank (pJ) (Joule)
system.mem_ctrl.dram.rank1.actBackEnergy   3894894930                       # Energy for active background per rank (pJ) (Joule)
system.mem_ctrl.dram.rank1.preBackEnergy  97727042400                       # Energy for precharge background per rank (pJ) (Joule)
system.mem_ctrl.dram.rank1.actPowerDownEnergy            0                       # Energy for active power-down per rank (pJ) (Joule)
system.mem_ctrl.dram.rank1.prePowerDownEnergy            0                       # Energy for precharge power-down per rank (pJ) (Joule)
system.mem_ctrl.dram.rank1.selfRefreshEnergy            0                       # Energy for self refresh per rank (pJ) (Joule)
system.mem_ctrl.dram.rank1.totalEnergy   122402302860                       # Total energy per rank (pJ) (Joule)
system.mem_ctrl.dram.rank1.averagePower    465.339094                       # Core power per rank (mW) (Watt)
system.mem_ctrl.dram.rank1.totalIdleTime            0                       # Total Idle time Per DRAM Rank (Tick)
system.mem_ctrl.dram.rank1.pwrStateTime::IDLE 254032158250                       # Time in different power states (Tick)
system.mem_ctrl.dram.rank1.pwrStateTime::REF   8783320000                       # Time in different power states (Tick)
system.mem_ctrl.dram.rank1.pwrStateTime::SREF            0                       # Time in different power states (Tick)
system.mem_ctrl.dram.rank1.pwrStateTime::PRE_PDN            0                       # Time in different power states (Tick)
system.mem_ctrl.dram.rank1.pwrStateTime::ACT    223463750                       # Time in different power states (Tick)
system.mem_ctrl.dram.rank1.pwrStateTime::ACT_PDN            0                       # Time in different power states (Tick)
system.mem_ctrl.power_state.pwrStateResidencyTicks::UNDEFINED 263038942000                       # Cumulative time (in ticks) in various power states (Tick)
system.membus.transDist::ReadResp                3284                       # Transaction distribution (Count)
system.membus.transDist::WritebackDirty            24                       # Transaction distribution (Count)
system.membus.transDist::CleanEvict               231                       # Transaction distribution (Count)
system.membus.transDist::ReadExReq                584                       # Transaction distribution (Count)
system.membus.transDist::ReadExResp               584                       # Transaction distribution (Count)
system.membus.transDist::ReadSharedReq           3284                       # Transaction distribution (Count)
system.membus.pktCount_system.l2cache.mem_side_port::system.mem_ctrl.port         7991                       # Packet count per connected requestor and responder (Count)
system.membus.pktCount_system.l2cache.mem_side_port::total         7991                       # Packet count per connected requestor and responder (Count)
system.membus.pktCount::total                    7991                       # Packet count per connected requestor and responder (Count)
system.membus.pktSize_system.l2cache.mem_side_port::system.mem_ctrl.port       249088                       # Cumulative packet size per connected requestor and responder (Byte)
system.membus.pktSize_system.l2cache.mem_side_port::total       249088                       # Cumulative packet size per connected requestor and responder (Byte)
system.membus.pktSize::total                   249088                       # Cumulative packet size per connected requestor and responder (Byte)
system.membus.snoops                                0                       # Total snoops (Count)
system.membus.snoopTraffic                          0                       # Total snoop traffic (Byte)
system.membus.snoopFanout::samples               3868                       # Request fanout histogram (Count)
system.membus.snoopFanout::mean                     0                       # Request fanout histogram (Count)
system.membus.snoopFanout::stdev                    0                       # Request fanout histogram (Count)
system.membus.snoopFanout::underflows               0      0.00%      0.00% # Request fanout histogram (Count)
system.membus.snoopFanout::0                     3868    100.00%    100.00% # Request fanout histogram (Count)
system.membus.snoopFanout::1                        0      0.00%    100.00% # Request fanout histogram (Count)
system.membus.snoopFanout::overflows                0      0.00%    100.00% # Request fanout histogram (Count)
system.membus.snoopFanout::min_value                0                       # Request fanout histogram (Count)
system.membus.snoopFanout::max_value                0                       # Request fanout histogram (Count)
system.membus.snoopFanout::total                 3868                       # Request fanout histogram (Count)
system.membus.power_state.pwrStateResidencyTicks::UNDEFINED 263038942000                       # Cumulative time (in ticks) in various power states (Tick)
system.membus.reqLayer2.occupancy             2109500                       # Layer occupancy (ticks) (Tick)
system.membus.reqLayer2.utilization               0.0                       # Layer utilization (Ratio)
system.membus.respLayer0.occupancy           10523250                       # Layer occupancy (ticks) (Tick)
system.membus.respLayer0.utilization              0.0                       # Layer utilization (Ratio)
system.membus.snoop_filter.totRequests           4123                       # Total number of requests made to the snoop filter. (Count)
system.membus.snoop_filter.hitSingleRequests          255                       # Number of requests hitting in the snoop filter with a single holder of the requested data. (Count)
system.membus.snoop_filter.hitMultiRequests            0                       # Number of requests hitting in the snoop filter with multiple (>1) holders of the requested data. (Count)
system.membus.snoop_filter.totSnoops                0                       # Total number of snoops made to the snoop filter. (Count)
system.membus.snoop_filter.hitSingleSnoops            0                       # Number of snoops hitting in the snoop filter with a single holder of the requested data. (Count)
system.membus.snoop_filter.hitMultiSnoops            0                       # Number of snoops hitting in the snoop filter with multiple (>1) holders of the requested data. (Count)
system.workload.inst.arm                            0                       # number of arm instructions executed (Count)
system.workload.inst.quiesce                        0                       # number of quiesce instructions executed (Count)

---------- End Simulation Statistics   ----------
