
---------- Begin Simulation Statistics ----------
simSeconds                                   0.115210                       # Number of seconds simulated (Second)
simTicks                                 115209614000                       # Number of ticks simulated (Tick)
finalTick                                115209614000                       # Number of ticks from beginning of simulation (restored from checkpoints and never reset) (Tick)
simFreq                                  1000000000000                       # The number of ticks per simulated second ((Tick/Second))
hostSeconds                                   2824.63                       # Real time elapsed on the host (Second)
hostTickRate                                 40787468                       # The number of ticks simulated per host second (ticks/s) ((Tick/Second))
hostMemory                                    1216816                       # Number of bytes of host memory used (Byte)
simInsts                                    262991506                       # Number of instructions simulated (Count)
simOps                                      573706032                       # Number of ops (including micro ops) simulated (Count)
hostInstRate                                    93106                       # Simulator instruction rate (inst/s) ((Count/Second))
hostOpRate                                     203108                       # Simulator op (including micro ops) rate (op/s) ((Count/Second))
system.clk_domain.clock                           500                       # Clock period in ticks (Tick)
system.clk_domain.voltage_domain.voltage            1                       # Voltage in Volts (Volt)
system.cpu.numCycles                        230419229                       # Number of cpu cycles simulated (Cycle)
system.cpu.numWorkItemsStarted                      0                       # Number of work items this cpu started (Count)
system.cpu.numWorkItemsCompleted                    0                       # Number of work items this cpu completed (Count)
system.cpu.instsAdded                       749234169                       # Number of instructions added to the IQ (excludes non-spec) (Count)
system.cpu.nonSpecInstsAdded                   170673                       # Number of non-speculative instructions added to the IQ (Count)
system.cpu.instsIssued                      708374195                       # Number of instructions issued (Count)
system.cpu.squashedInstsIssued                1227826                       # Number of squashed instructions issued (Count)
system.cpu.squashedInstsExamined            175698804                       # Number of squashed instructions iterated over during squash; mainly for profiling (Count)
system.cpu.squashedOperandsExamined         244675583                       # Number of squashed operands that are examined and possibly removed from graph (Count)
system.cpu.squashedNonSpecRemoved                 183                       # Number of squashed non-spec instructions that were removed (Count)
system.cpu.numIssuedDist::samples           230114967                       # Number of insts issued each cycle (Count)
system.cpu.numIssuedDist::mean               3.078349                       # Number of insts issued each cycle (Count)
system.cpu.numIssuedDist::stdev              2.542129                       # Number of insts issued each cycle (Count)
system.cpu.numIssuedDist::underflows                0      0.00%      0.00% # Number of insts issued each cycle (Count)
system.cpu.numIssuedDist::0                  70606491     30.68%     30.68% # Number of insts issued each cycle (Count)
system.cpu.numIssuedDist::1                  10337411      4.49%     35.18% # Number of insts issued each cycle (Count)
system.cpu.numIssuedDist::2                  16240346      7.06%     42.23% # Number of insts issued each cycle (Count)
system.cpu.numIssuedDist::3                  19007579      8.26%     50.49% # Number of insts issued each cycle (Count)
system.cpu.numIssuedDist::4                  34768025     15.11%     65.60% # Number of insts issued each cycle (Count)
system.cpu.numIssuedDist::5                  36103738     15.69%     81.29% # Number of insts issued each cycle (Count)
system.cpu.numIssuedDist::6                  19606331      8.52%     89.81% # Number of insts issued each cycle (Count)
system.cpu.numIssuedDist::7                  16255789      7.06%     96.88% # Number of insts issued each cycle (Count)
system.cpu.numIssuedDist::8                   7189257      3.12%    100.00% # Number of insts issued each cycle (Count)
system.cpu.numIssuedDist::overflows                 0      0.00%    100.00% # Number of insts issued each cycle (Count)
system.cpu.numIssuedDist::min_value                 0                       # Number of insts issued each cycle (Count)
system.cpu.numIssuedDist::max_value                 8                       # Number of insts issued each cycle (Count)
system.cpu.numIssuedDist::total             230114967                       # Number of insts issued each cycle (Count)
system.cpu.statFuBusy::No_OpClass                   0      0.00%      0.00% # attempts to use FU when none available (Count)
system.cpu.statFuBusy::IntAlu                19488600     99.45%     99.45% # attempts to use FU when none available (Count)
system.cpu.statFuBusy::IntMult                      0      0.00%     99.45% # attempts to use FU when none available (Count)
system.cpu.statFuBusy::IntDiv                       0      0.00%     99.45% # attempts to use FU when none available (Count)
system.cpu.statFuBusy::FloatAdd                     0      0.00%     99.45% # attempts to use FU when none available (Count)
system.cpu.statFuBusy::FloatCmp                     0      0.00%     99.45% # attempts to use FU when none available (Count)
system.cpu.statFuBusy::FloatCvt                     0      0.00%     99.45% # attempts to use FU when none available (Count)
system.cpu.statFuBusy::FloatMult                    0      0.00%     99.45% # attempts to use FU when none available (Count)
system.cpu.statFuBusy::FloatMultAcc                 0      0.00%     99.45% # attempts to use FU when none available (Count)
system.cpu.statFuBusy::FloatDiv                     0      0.00%     99.45% # attempts to use FU when none available (Count)
system.cpu.statFuBusy::FloatMisc                    0      0.00%     99.45% # attempts to use FU when none available (Count)
system.cpu.statFuBusy::FloatSqrt                    0      0.00%     99.45% # attempts to use FU when none available (Count)
system.cpu.statFuBusy::SimdAdd                      0      0.00%     99.45% # attempts to use FU when none available (Count)
system.cpu.statFuBusy::SimdAddAcc                   0      0.00%     99.45% # attempts to use FU when none available (Count)
system.cpu.statFuBusy::SimdAlu                     22      0.00%     99.45% # attempts to use FU when none available (Count)
system.cpu.statFuBusy::SimdCmp                      0      0.00%     99.45% # attempts to use FU when none available (Count)
system.cpu.statFuBusy::SimdCvt                     27      0.00%     99.45% # attempts to use FU when none available (Count)
system.cpu.statFuBusy::SimdMisc                     1      0.00%     99.45% # attempts to use FU when none available (Count)
system.cpu.statFuBusy::SimdMult                     0      0.00%     99.45% # attempts to use FU when none available (Count)
system.cpu.statFuBusy::SimdMultAcc                  0      0.00%     99.45% # attempts to use FU when none available (Count)
system.cpu.statFuBusy::SimdShift                    1      0.00%     99.45% # attempts to use FU when none available (Count)
system.cpu.statFuBusy::SimdShiftAcc                 0      0.00%     99.45% # attempts to use FU when none available (Count)
system.cpu.statFuBusy::SimdDiv                      0      0.00%     99.45% # attempts to use FU when none available (Count)
system.cpu.statFuBusy::SimdSqrt                     0      0.00%     99.45% # attempts to use FU when none available (Count)
system.cpu.statFuBusy::SimdFloatAdd                 0      0.00%     99.45% # attempts to use FU when none available (Count)
system.cpu.statFuBusy::SimdFloatAlu                 0      0.00%     99.45% # attempts to use FU when none available (Count)
system.cpu.statFuBusy::SimdFloatCmp                 0      0.00%     99.45% # attempts to use FU when none available (Count)
system.cpu.statFuBusy::SimdFloatCvt                 0      0.00%     99.45% # attempts to use FU when none available (Count)
system.cpu.statFuBusy::SimdFloatDiv                 0      0.00%     99.45% # attempts to use FU when none available (Count)
system.cpu.statFuBusy::SimdFloatMisc                0      0.00%     99.45% # attempts to use FU when none available (Count)
system.cpu.statFuBusy::SimdFloatMult                0      0.00%     99.45% # attempts to use FU when none available (Count)
system.cpu.statFuBusy::SimdFloatMultAcc             0      0.00%     99.45% # attempts to use FU when none available (Count)
system.cpu.statFuBusy::SimdFloatSqrt                0      0.00%     99.45% # attempts to use FU when none available (Count)
system.cpu.statFuBusy::SimdReduceAdd                0      0.00%     99.45% # attempts to use FU when none available (Count)
system.cpu.statFuBusy::SimdReduceAlu                0      0.00%     99.45% # attempts to use FU when none available (Count)
system.cpu.statFuBusy::SimdReduceCmp                0      0.00%     99.45% # attempts to use FU when none available (Count)
system.cpu.statFuBusy::SimdFloatReduceAdd            0      0.00%     99.45% # attempts to use FU when none available (Count)
system.cpu.statFuBusy::SimdFloatReduceCmp            0      0.00%     99.45% # attempts to use FU when none available (Count)
system.cpu.statFuBusy::SimdAes                      0      0.00%     99.45% # attempts to use FU when none available (Count)
system.cpu.statFuBusy::SimdAesMix                   0      0.00%     99.45% # attempts to use FU when none available (Count)
system.cpu.statFuBusy::SimdSha1Hash                 0      0.00%     99.45% # attempts to use FU when none available (Count)
system.cpu.statFuBusy::SimdSha1Hash2                0      0.00%     99.45% # attempts to use FU when none available (Count)
system.cpu.statFuBusy::SimdSha256Hash               0      0.00%     99.45% # attempts to use FU when none available (Count)
system.cpu.statFuBusy::SimdSha256Hash2              0      0.00%     99.45% # attempts to use FU when none available (Count)
system.cpu.statFuBusy::SimdShaSigma2                0      0.00%     99.45% # attempts to use FU when none available (Count)
system.cpu.statFuBusy::SimdShaSigma3                0      0.00%     99.45% # attempts to use FU when none available (Count)
system.cpu.statFuBusy::SimdPredAlu                  0      0.00%     99.45% # attempts to use FU when none available (Count)
system.cpu.statFuBusy::MemRead                  63301      0.32%     99.78% # attempts to use FU when none available (Count)
system.cpu.statFuBusy::MemWrite                 43882      0.22%    100.00% # attempts to use FU when none available (Count)
system.cpu.statFuBusy::FloatMemRead                38      0.00%    100.00% # attempts to use FU when none available (Count)
system.cpu.statFuBusy::FloatMemWrite              150      0.00%    100.00% # attempts to use FU when none available (Count)
system.cpu.statFuBusy::IprAccess                    0      0.00%    100.00% # attempts to use FU when none available (Count)
system.cpu.statFuBusy::InstPrefetch                 0      0.00%    100.00% # attempts to use FU when none available (Count)
system.cpu.statIssuedInstType_0::No_OpClass     12992544      1.83%      1.83% # Number of instructions issued per FU type, per thread (Count)
system.cpu.statIssuedInstType_0::IntAlu     551677077     77.88%     79.71% # Number of instructions issued per FU type, per thread (Count)
system.cpu.statIssuedInstType_0::IntMult        68956      0.01%     79.72% # Number of instructions issued per FU type, per thread (Count)
system.cpu.statIssuedInstType_0::IntDiv          1609      0.00%     79.72% # Number of instructions issued per FU type, per thread (Count)
system.cpu.statIssuedInstType_0::FloatAdd        43528      0.01%     79.73% # Number of instructions issued per FU type, per thread (Count)
system.cpu.statIssuedInstType_0::FloatCmp            0      0.00%     79.73% # Number of instructions issued per FU type, per thread (Count)
system.cpu.statIssuedInstType_0::FloatCvt           32      0.00%     79.73% # Number of instructions issued per FU type, per thread (Count)
system.cpu.statIssuedInstType_0::FloatMult            0      0.00%     79.73% # Number of instructions issued per FU type, per thread (Count)
system.cpu.statIssuedInstType_0::FloatMultAcc            0      0.00%     79.73% # Number of instructions issued per FU type, per thread (Count)
system.cpu.statIssuedInstType_0::FloatDiv            0      0.00%     79.73% # Number of instructions issued per FU type, per thread (Count)
system.cpu.statIssuedInstType_0::FloatMisc            0      0.00%     79.73% # Number of instructions issued per FU type, per thread (Count)
system.cpu.statIssuedInstType_0::FloatSqrt            0      0.00%     79.73% # Number of instructions issued per FU type, per thread (Count)
system.cpu.statIssuedInstType_0::SimdAdd          553      0.00%     79.73% # Number of instructions issued per FU type, per thread (Count)
system.cpu.statIssuedInstType_0::SimdAddAcc            0      0.00%     79.73% # Number of instructions issued per FU type, per thread (Count)
system.cpu.statIssuedInstType_0::SimdAlu       115495      0.02%     79.75% # Number of instructions issued per FU type, per thread (Count)
system.cpu.statIssuedInstType_0::SimdCmp            0      0.00%     79.75% # Number of instructions issued per FU type, per thread (Count)
system.cpu.statIssuedInstType_0::SimdCvt       115116      0.02%     79.76% # Number of instructions issued per FU type, per thread (Count)
system.cpu.statIssuedInstType_0::SimdMisc       271152      0.04%     79.80% # Number of instructions issued per FU type, per thread (Count)
system.cpu.statIssuedInstType_0::SimdMult            0      0.00%     79.80% # Number of instructions issued per FU type, per thread (Count)
system.cpu.statIssuedInstType_0::SimdMultAcc            0      0.00%     79.80% # Number of instructions issued per FU type, per thread (Count)
system.cpu.statIssuedInstType_0::SimdShift          617      0.00%     79.80% # Number of instructions issued per FU type, per thread (Count)
system.cpu.statIssuedInstType_0::SimdShiftAcc            0      0.00%     79.80% # Number of instructions issued per FU type, per thread (Count)
system.cpu.statIssuedInstType_0::SimdDiv            0      0.00%     79.80% # Number of instructions issued per FU type, per thread (Count)
system.cpu.statIssuedInstType_0::SimdSqrt            0      0.00%     79.80% # Number of instructions issued per FU type, per thread (Count)
system.cpu.statIssuedInstType_0::SimdFloatAdd            0      0.00%     79.80% # Number of instructions issued per FU type, per thread (Count)
system.cpu.statIssuedInstType_0::SimdFloatAlu            0      0.00%     79.80% # Number of instructions issued per FU type, per thread (Count)
system.cpu.statIssuedInstType_0::SimdFloatCmp            0      0.00%     79.80% # Number of instructions issued per FU type, per thread (Count)
system.cpu.statIssuedInstType_0::SimdFloatCvt            0      0.00%     79.80% # Number of instructions issued per FU type, per thread (Count)
system.cpu.statIssuedInstType_0::SimdFloatDiv            0      0.00%     79.80% # Number of instructions issued per FU type, per thread (Count)
system.cpu.statIssuedInstType_0::SimdFloatMisc            0      0.00%     79.80% # Number of instructions issued per FU type, per thread (Count)
system.cpu.statIssuedInstType_0::SimdFloatMult            0      0.00%     79.80% # Number of instructions issued per FU type, per thread (Count)
system.cpu.statIssuedInstType_0::SimdFloatMultAcc            0      0.00%     79.80% # Number of instructions issued per FU type, per thread (Count)
system.cpu.statIssuedInstType_0::SimdFloatSqrt            0      0.00%     79.80% # Number of instructions issued per FU type, per thread (Count)
system.cpu.statIssuedInstType_0::SimdReduceAdd            0      0.00%     79.80% # Number of instructions issued per FU type, per thread (Count)
system.cpu.statIssuedInstType_0::SimdReduceAlu            0      0.00%     79.80% # Number of instructions issued per FU type, per thread (Count)
system.cpu.statIssuedInstType_0::SimdReduceCmp            0      0.00%     79.80% # Number of instructions issued per FU type, per thread (Count)
system.cpu.statIssuedInstType_0::SimdFloatReduceAdd            0      0.00%     79.80% # Number of instructions issued per FU type, per thread (Count)
system.cpu.statIssuedInstType_0::SimdFloatReduceCmp            0      0.00%     79.80% # Number of instructions issued per FU type, per thread (Count)
system.cpu.statIssuedInstType_0::SimdAes            0      0.00%     79.80% # Number of instructions issued per FU type, per thread (Count)
system.cpu.statIssuedInstType_0::SimdAesMix            0      0.00%     79.80% # Number of instructions issued per FU type, per thread (Count)
system.cpu.statIssuedInstType_0::SimdSha1Hash            0      0.00%     79.80% # Number of instructions issued per FU type, per thread (Count)
system.cpu.statIssuedInstType_0::SimdSha1Hash2            0      0.00%     79.80% # Number of instructions issued per FU type, per thread (Count)
system.cpu.statIssuedInstType_0::SimdSha256Hash            0      0.00%     79.80% # Number of instructions issued per FU type, per thread (Count)
system.cpu.statIssuedInstType_0::SimdSha256Hash2            0      0.00%     79.80% # Number of instructions issued per FU type, per thread (Count)
system.cpu.statIssuedInstType_0::SimdShaSigma2            0      0.00%     79.80% # Number of instructions issued per FU type, per thread (Count)
system.cpu.statIssuedInstType_0::SimdShaSigma3            0      0.00%     79.80% # Number of instructions issued per FU type, per thread (Count)
system.cpu.statIssuedInstType_0::SimdPredAlu            0      0.00%     79.80% # Number of instructions issued per FU type, per thread (Count)
system.cpu.statIssuedInstType_0::MemRead     94530294     13.34%     93.15% # Number of instructions issued per FU type, per thread (Count)
system.cpu.statIssuedInstType_0::MemWrite     48353733      6.83%     99.97% # Number of instructions issued per FU type, per thread (Count)
system.cpu.statIssuedInstType_0::FloatMemRead        87955      0.01%     99.98% # Number of instructions issued per FU type, per thread (Count)
system.cpu.statIssuedInstType_0::FloatMemWrite       115534      0.02%    100.00% # Number of instructions issued per FU type, per thread (Count)
system.cpu.statIssuedInstType_0::IprAccess            0      0.00%    100.00% # Number of instructions issued per FU type, per thread (Count)
system.cpu.statIssuedInstType_0::InstPrefetch            0      0.00%    100.00% # Number of instructions issued per FU type, per thread (Count)
system.cpu.statIssuedInstType_0::total      708374195                       # Number of instructions issued per FU type, per thread (Count)
system.cpu.issueRate                         3.074284                       # Inst issue rate ((Count/Cycle))
system.cpu.fuBusy                            19596022                       # FU busy when requested (Count)
system.cpu.fuBusyRate                        0.027663                       # FU busy rate (busy events/executed inst) ((Count/Count))
system.cpu.intInstQueueReads               1665987091                       # Number of integer instruction queue reads (Count)
system.cpu.intInstQueueWrites               924242056                       # Number of integer instruction queue writes (Count)
system.cpu.intInstQueueWakeupAccesses       686519658                       # Number of integer instruction queue wakeup accesses (Count)
system.cpu.fpInstQueueReads                   1700114                       # Number of floating instruction queue reads (Count)
system.cpu.fpInstQueueWrites                   862463                       # Number of floating instruction queue writes (Count)
system.cpu.fpInstQueueWakeupAccesses           848733                       # Number of floating instruction queue wakeup accesses (Count)
system.cpu.vecInstQueueReads                        0                       # Number of vector instruction queue reads (Count)
system.cpu.vecInstQueueWrites                       0                       # Number of vector instruction queue writes (Count)
system.cpu.vecInstQueueWakeupAccesses               0                       # Number of vector instruction queue wakeup accesses (Count)
system.cpu.intAluAccesses                   714127594                       # Number of integer alu accesses (Count)
system.cpu.fpAluAccesses                       850079                       # Number of floating point alu accesses (Count)
system.cpu.vecAluAccesses                           0                       # Number of vector alu accesses (Count)
system.cpu.numInsts                         694050681                       # Number of executed instructions (Count)
system.cpu.numLoadInsts                      92134543                       # Number of load instructions executed (Count)
system.cpu.numSquashedInsts                  14323514                       # Number of squashed instructions skipped in execute (Count)
system.cpu.numSwp                                   0                       # Number of swp insts executed (Count)
system.cpu.numNop                                   0                       # Number of nop insts executed (Count)
system.cpu.numRefs                          139418077                       # Number of memory reference insts executed (Count)
system.cpu.numBranches                       62429597                       # Number of branches executed (Count)
system.cpu.numStoreInsts                     47283534                       # Number of stores executed (Count)
system.cpu.numRate                           3.012121                       # Inst execution rate ((Count/Cycle))
system.cpu.timesIdled                          132743                       # Number of times that the entire CPU went into an idle state and unscheduled itself (Count)
system.cpu.idleCycles                          304262                       # Total number of cycles that the CPU has spent unscheduled due to idling (Cycle)
system.cpu.committedInsts                   262991506                       # Number of Instructions Simulated (Count)
system.cpu.committedOps                     573706032                       # Number of Ops (including micro ops) Simulated (Count)
system.cpu.cpi                               0.876147                       # CPI: Cycles Per Instruction ((Cycle/Count))
system.cpu.totalCpi                          0.876147                       # CPI: Total CPI of All Threads ((Cycle/Count))
system.cpu.ipc                               1.141361                       # IPC: Instructions Per Cycle ((Count/Cycle))
system.cpu.totalIpc                          1.141361                       # IPC: Total IPC of All Threads ((Count/Cycle))
system.cpu.intRegfileReads                  759702449                       # Number of integer regfile reads (Count)
system.cpu.intRegfileWrites                 520028464                       # Number of integer regfile writes (Count)
system.cpu.fpRegfileReads                     1392890                       # Number of floating regfile reads (Count)
system.cpu.fpRegfileWrites                     675968                       # Number of floating regfile writes (Count)
system.cpu.ccRegfileReads                   234124381                       # number of cc regfile reads (Count)
system.cpu.ccRegfileWrites                  246713659                       # number of cc regfile writes (Count)
system.cpu.miscRegfileReads                 295915540                       # number of misc regfile reads (Count)
system.cpu.miscRegfileWrites                       18                       # number of misc regfile writes (Count)
system.cpu.MemDepUnit__0.insertedLoads       98185255                       # Number of loads inserted to the mem dependence unit. (Count)
system.cpu.MemDepUnit__0.insertedStores      52129581                       # Number of stores inserted to the mem dependence unit. (Count)
system.cpu.MemDepUnit__0.conflictingLoads       406254                       # Number of conflicting loads. (Count)
system.cpu.MemDepUnit__0.conflictingStores       382986                       # Number of conflicting stores. (Count)
system.cpu.MemDepUnit__1.insertedLoads              0                       # Number of loads inserted to the mem dependence unit. (Count)
system.cpu.MemDepUnit__1.insertedStores             0                       # Number of stores inserted to the mem dependence unit. (Count)
system.cpu.MemDepUnit__1.conflictingLoads            0                       # Number of conflicting loads. (Count)
system.cpu.MemDepUnit__1.conflictingStores            0                       # Number of conflicting stores. (Count)
system.cpu.MemDepUnit__2.insertedLoads              0                       # Number of loads inserted to the mem dependence unit. (Count)
system.cpu.MemDepUnit__2.insertedStores             0                       # Number of stores inserted to the mem dependence unit. (Count)
system.cpu.MemDepUnit__2.conflictingLoads            0                       # Number of conflicting loads. (Count)
system.cpu.MemDepUnit__2.conflictingStores            0                       # Number of conflicting stores. (Count)
system.cpu.MemDepUnit__3.insertedLoads              0                       # Number of loads inserted to the mem dependence unit. (Count)
system.cpu.MemDepUnit__3.insertedStores             0                       # Number of stores inserted to the mem dependence unit. (Count)
system.cpu.MemDepUnit__3.conflictingLoads            0                       # Number of conflicting loads. (Count)
system.cpu.MemDepUnit__3.conflictingStores            0                       # Number of conflicting stores. (Count)
system.cpu.branchPred.lookups                83581326                       # Number of BP lookups (Count)
system.cpu.branchPred.condPredicted          63343625                       # Number of conditional branches predicted (Count)
system.cpu.branchPred.condIncorrect           6108552                       # Number of conditional branches incorrect (Count)
system.cpu.branchPred.BTBLookups             50646369                       # Number of BTB lookups (Count)
system.cpu.branchPred.BTBUpdates              2602054                       # Number of BTB updates (Count)
system.cpu.branchPred.BTBHits                50640032                       # Number of BTB hits (Count)
system.cpu.branchPred.BTBHitRatio            0.999875                       # BTB Hit Ratio (Ratio)
system.cpu.branchPred.RASUsed                 6780211                       # Number of times the RAS was used to get a target. (Count)
system.cpu.branchPred.RASIncorrect                 15                       # Number of incorrect RAS predictions. (Count)
system.cpu.branchPred.indirectLookups         4861470                       # Number of indirect predictor lookups. (Count)
system.cpu.branchPred.indirectHits            4859957                       # Number of indirect target hits. (Count)
system.cpu.branchPred.indirectMisses             1513                       # Number of indirect misses. (Count)
system.cpu.branchPred.indirectMispredicted        28796                       # Number of mispredicted indirect branches. (Count)
system.cpu.commit.commitSquashedInsts       175683516                       # The number of squashed insts skipped by commit (Count)
system.cpu.commit.commitNonSpecStalls          170490                       # The number of times commit has been forced to stall to communicate backwards (Count)
system.cpu.commit.branchMispredicts           6079791                       # The number of times a branch was mispredicted (Count)
system.cpu.commit.numCommittedDist::samples    205432836                       # Number of insts commited each cycle (Count)
system.cpu.commit.numCommittedDist::mean     2.792670                       # Number of insts commited each cycle (Count)
system.cpu.commit.numCommittedDist::stdev     2.864866                       # Number of insts commited each cycle (Count)
system.cpu.commit.numCommittedDist::underflows            0      0.00%      0.00% # Number of insts commited each cycle (Count)
system.cpu.commit.numCommittedDist::0        69090792     33.63%     33.63% # Number of insts commited each cycle (Count)
system.cpu.commit.numCommittedDist::1        19726568      9.60%     43.23% # Number of insts commited each cycle (Count)
system.cpu.commit.numCommittedDist::2        17763319      8.65%     51.88% # Number of insts commited each cycle (Count)
system.cpu.commit.numCommittedDist::3        37119203     18.07%     69.95% # Number of insts commited each cycle (Count)
system.cpu.commit.numCommittedDist::4        14018715      6.82%     76.77% # Number of insts commited each cycle (Count)
system.cpu.commit.numCommittedDist::5         5969651      2.91%     79.68% # Number of insts commited each cycle (Count)
system.cpu.commit.numCommittedDist::6         4987135      2.43%     82.11% # Number of insts commited each cycle (Count)
system.cpu.commit.numCommittedDist::7         2810332      1.37%     83.48% # Number of insts commited each cycle (Count)
system.cpu.commit.numCommittedDist::8        33947121     16.52%    100.00% # Number of insts commited each cycle (Count)
system.cpu.commit.numCommittedDist::overflows            0      0.00%    100.00% # Number of insts commited each cycle (Count)
system.cpu.commit.numCommittedDist::min_value            0                       # Number of insts commited each cycle (Count)
system.cpu.commit.numCommittedDist::max_value            8                       # Number of insts commited each cycle (Count)
system.cpu.commit.numCommittedDist::total    205432836                       # Number of insts commited each cycle (Count)
system.cpu.commit.instsCommitted            262991506                       # Number of instructions committed (Count)
system.cpu.commit.opsCommitted              573706032                       # Number of ops (including micro ops) committed (Count)
system.cpu.commit.memRefs                   117966259                       # Number of memory references committed (Count)
system.cpu.commit.loads                      78324425                       # Number of loads committed (Count)
system.cpu.commit.amos                              0                       # Number of atomic instructions committed (Count)
system.cpu.commit.membars                      113648                       # Number of memory barriers committed (Count)
system.cpu.commit.branches                   57393783                       # Number of branches committed (Count)
system.cpu.commit.vectorInstructions                0                       # Number of committed Vector instructions. (Count)
system.cpu.commit.floating                     844373                       # Number of committed floating point instructions. (Count)
system.cpu.commit.integer                   562364996                       # Number of committed integer instructions. (Count)
system.cpu.commit.functionCalls               5372673                       # Number of function calls committed. (Count)
system.cpu.commit.committedInstType_0::No_OpClass     10640772      1.85%      1.85% # Class of committed instruction (Count)
system.cpu.commit.committedInstType_0::IntAlu    444494034     77.48%     79.33% # Class of committed instruction (Count)
system.cpu.commit.committedInstType_0::IntMult        59920      0.01%     79.34% # Class of committed instruction (Count)
system.cpu.commit.committedInstType_0::IntDiv         1501      0.00%     79.34% # Class of committed instruction (Count)
system.cpu.commit.committedInstType_0::FloatAdd        43052      0.01%     79.35% # Class of committed instruction (Count)
system.cpu.commit.committedInstType_0::FloatCmp            0      0.00%     79.35% # Class of committed instruction (Count)
system.cpu.commit.committedInstType_0::FloatCvt           32      0.00%     79.35% # Class of committed instruction (Count)
system.cpu.commit.committedInstType_0::FloatMult            0      0.00%     79.35% # Class of committed instruction (Count)
system.cpu.commit.committedInstType_0::FloatMultAcc            0      0.00%     79.35% # Class of committed instruction (Count)
system.cpu.commit.committedInstType_0::FloatDiv            0      0.00%     79.35% # Class of committed instruction (Count)
system.cpu.commit.committedInstType_0::FloatMisc            0      0.00%     79.35% # Class of committed instruction (Count)
system.cpu.commit.committedInstType_0::FloatSqrt            0      0.00%     79.35% # Class of committed instruction (Count)
system.cpu.commit.committedInstType_0::SimdAdd          382      0.00%     79.35% # Class of committed instruction (Count)
system.cpu.commit.committedInstType_0::SimdAddAcc            0      0.00%     79.35% # Class of committed instruction (Count)
system.cpu.commit.committedInstType_0::SimdAlu       114491      0.02%     79.37% # Class of committed instruction (Count)
system.cpu.commit.committedInstType_0::SimdCmp            0      0.00%     79.37% # Class of committed instruction (Count)
system.cpu.commit.committedInstType_0::SimdCvt       114516      0.02%     79.39% # Class of committed instruction (Count)
system.cpu.commit.committedInstType_0::SimdMisc       270865      0.05%     79.44% # Class of committed instruction (Count)
system.cpu.commit.committedInstType_0::SimdMult            0      0.00%     79.44% # Class of committed instruction (Count)
system.cpu.commit.committedInstType_0::SimdMultAcc            0      0.00%     79.44% # Class of committed instruction (Count)
system.cpu.commit.committedInstType_0::SimdShift          208      0.00%     79.44% # Class of committed instruction (Count)
system.cpu.commit.committedInstType_0::SimdShiftAcc            0      0.00%     79.44% # Class of committed instruction (Count)
system.cpu.commit.committedInstType_0::SimdDiv            0      0.00%     79.44% # Class of committed instruction (Count)
system.cpu.commit.committedInstType_0::SimdSqrt            0      0.00%     79.44% # Class of committed instruction (Count)
system.cpu.commit.committedInstType_0::SimdFloatAdd            0      0.00%     79.44% # Class of committed instruction (Count)
system.cpu.commit.committedInstType_0::SimdFloatAlu            0      0.00%     79.44% # Class of committed instruction (Count)
system.cpu.commit.committedInstType_0::SimdFloatCmp            0      0.00%     79.44% # Class of committed instruction (Count)
system.cpu.commit.committedInstType_0::SimdFloatCvt            0      0.00%     79.44% # Class of committed instruction (Count)
system.cpu.commit.committedInstType_0::SimdFloatDiv            0      0.00%     79.44% # Class of committed instruction (Count)
system.cpu.commit.committedInstType_0::SimdFloatMisc            0      0.00%     79.44% # Class of committed instruction (Count)
system.cpu.commit.committedInstType_0::SimdFloatMult            0      0.00%     79.44% # Class of committed instruction (Count)
system.cpu.commit.committedInstType_0::SimdFloatMultAcc            0      0.00%     79.44% # Class of committed instruction (Count)
system.cpu.commit.committedInstType_0::SimdFloatSqrt            0      0.00%     79.44% # Class of committed instruction (Count)
system.cpu.commit.committedInstType_0::SimdReduceAdd            0      0.00%     79.44% # Class of committed instruction (Count)
system.cpu.commit.committedInstType_0::SimdReduceAlu            0      0.00%     79.44% # Class of committed instruction (Count)
system.cpu.commit.committedInstType_0::SimdReduceCmp            0      0.00%     79.44% # Class of committed instruction (Count)
system.cpu.commit.committedInstType_0::SimdFloatReduceAdd            0      0.00%     79.44% # Class of committed instruction (Count)
system.cpu.commit.committedInstType_0::SimdFloatReduceCmp            0      0.00%     79.44% # Class of committed instruction (Count)
system.cpu.commit.committedInstType_0::SimdAes            0      0.00%     79.44% # Class of committed instruction (Count)
system.cpu.commit.committedInstType_0::SimdAesMix            0      0.00%     79.44% # Class of committed instruction (Count)
system.cpu.commit.committedInstType_0::SimdSha1Hash            0      0.00%     79.44% # Class of committed instruction (Count)
system.cpu.commit.committedInstType_0::SimdSha1Hash2            0      0.00%     79.44% # Class of committed instruction (Count)
system.cpu.commit.committedInstType_0::SimdSha256Hash            0      0.00%     79.44% # Class of committed instruction (Count)
system.cpu.commit.committedInstType_0::SimdSha256Hash2            0      0.00%     79.44% # Class of committed instruction (Count)
system.cpu.commit.committedInstType_0::SimdShaSigma2            0      0.00%     79.44% # Class of committed instruction (Count)
system.cpu.commit.committedInstType_0::SimdShaSigma3            0      0.00%     79.44% # Class of committed instruction (Count)
system.cpu.commit.committedInstType_0::SimdPredAlu            0      0.00%     79.44% # Class of committed instruction (Count)
system.cpu.commit.committedInstType_0::MemRead     78238160     13.64%     93.08% # Class of committed instruction (Count)
system.cpu.commit.committedInstType_0::MemWrite     39527040      6.89%     99.96% # Class of committed instruction (Count)
system.cpu.commit.committedInstType_0::FloatMemRead        86265      0.02%     99.98% # Class of committed instruction (Count)
system.cpu.commit.committedInstType_0::FloatMemWrite       114794      0.02%    100.00% # Class of committed instruction (Count)
system.cpu.commit.committedInstType_0::IprAccess            0      0.00%    100.00% # Class of committed instruction (Count)
system.cpu.commit.committedInstType_0::InstPrefetch            0      0.00%    100.00% # Class of committed instruction (Count)
system.cpu.commit.committedInstType_0::total    573706032                       # Class of committed instruction (Count)
system.cpu.commit.commitEligibleSamples      33947121                       # number cycles where commit BW limit reached (Cycle)
system.cpu.dcache.demandHits::cpu.data      122748189                       # number of demand (read+write) hits (Count)
system.cpu.dcache.demandHits::total         122748189                       # number of demand (read+write) hits (Count)
system.cpu.dcache.overallHits::cpu.data     122748189                       # number of overall hits (Count)
system.cpu.dcache.overallHits::total        122748189                       # number of overall hits (Count)
system.cpu.dcache.demandMisses::cpu.data         7284                       # number of demand (read+write) misses (Count)
system.cpu.dcache.demandMisses::total            7284                       # number of demand (read+write) misses (Count)
system.cpu.dcache.overallMisses::cpu.data         7284                       # number of overall misses (Count)
system.cpu.dcache.overallMisses::total           7284                       # number of overall misses (Count)
system.cpu.dcache.demandMissLatency::cpu.data    437875000                       # number of demand (read+write) miss ticks (Tick)
system.cpu.dcache.demandMissLatency::total    437875000                       # number of demand (read+write) miss ticks (Tick)
system.cpu.dcache.overallMissLatency::cpu.data    437875000                       # number of overall miss ticks (Tick)
system.cpu.dcache.overallMissLatency::total    437875000                       # number of overall miss ticks (Tick)
system.cpu.dcache.demandAccesses::cpu.data    122755473                       # number of demand (read+write) accesses (Count)
system.cpu.dcache.demandAccesses::total     122755473                       # number of demand (read+write) accesses (Count)
system.cpu.dcache.overallAccesses::cpu.data    122755473                       # number of overall (read+write) accesses (Count)
system.cpu.dcache.overallAccesses::total    122755473                       # number of overall (read+write) accesses (Count)
system.cpu.dcache.demandMissRate::cpu.data     0.000059                       # miss rate for demand accesses (Ratio)
system.cpu.dcache.demandMissRate::total      0.000059                       # miss rate for demand accesses (Ratio)
system.cpu.dcache.overallMissRate::cpu.data     0.000059                       # miss rate for overall accesses (Ratio)
system.cpu.dcache.overallMissRate::total     0.000059                       # miss rate for overall accesses (Ratio)
system.cpu.dcache.demandAvgMissLatency::cpu.data 60114.634816                       # average overall miss latency in ticks ((Tick/Count))
system.cpu.dcache.demandAvgMissLatency::total 60114.634816                       # average overall miss latency in ticks ((Tick/Count))
system.cpu.dcache.overallAvgMissLatency::cpu.data 60114.634816                       # average overall miss latency ((Tick/Count))
system.cpu.dcache.overallAvgMissLatency::total 60114.634816                       # average overall miss latency ((Tick/Count))
system.cpu.dcache.blockedCycles::no_mshrs        14857                       # number of cycles access was blocked (Cycle)
system.cpu.dcache.blockedCycles::no_targets            0                       # number of cycles access was blocked (Cycle)
system.cpu.dcache.blockedCauses::no_mshrs          347                       # number of times access was blocked (Count)
system.cpu.dcache.blockedCauses::no_targets            0                       # number of times access was blocked (Count)
system.cpu.dcache.avgBlocked::no_mshrs      42.815562                       # average number of cycles each access was blocked ((Cycle/Count))
system.cpu.dcache.avgBlocked::no_targets          nan                       # average number of cycles each access was blocked ((Cycle/Count))
system.cpu.dcache.writebacks::writebacks          419                       # number of writebacks (Count)
system.cpu.dcache.writebacks::total               419                       # number of writebacks (Count)
system.cpu.dcache.demandMshrHits::cpu.data         5153                       # number of demand (read+write) MSHR hits (Count)
system.cpu.dcache.demandMshrHits::total          5153                       # number of demand (read+write) MSHR hits (Count)
system.cpu.dcache.overallMshrHits::cpu.data         5153                       # number of overall MSHR hits (Count)
system.cpu.dcache.overallMshrHits::total         5153                       # number of overall MSHR hits (Count)
system.cpu.dcache.demandMshrMisses::cpu.data         2131                       # number of demand (read+write) MSHR misses (Count)
system.cpu.dcache.demandMshrMisses::total         2131                       # number of demand (read+write) MSHR misses (Count)
system.cpu.dcache.overallMshrMisses::cpu.data         2131                       # number of overall MSHR misses (Count)
system.cpu.dcache.overallMshrMisses::total         2131                       # number of overall MSHR misses (Count)
system.cpu.dcache.demandMshrMissLatency::cpu.data    143596000                       # number of demand (read+write) MSHR miss ticks (Tick)
system.cpu.dcache.demandMshrMissLatency::total    143596000                       # number of demand (read+write) MSHR miss ticks (Tick)
system.cpu.dcache.overallMshrMissLatency::cpu.data    143596000                       # number of overall MSHR miss ticks (Tick)
system.cpu.dcache.overallMshrMissLatency::total    143596000                       # number of overall MSHR miss ticks (Tick)
system.cpu.dcache.demandMshrMissRate::cpu.data     0.000017                       # mshr miss ratio for demand accesses (Ratio)
system.cpu.dcache.demandMshrMissRate::total     0.000017                       # mshr miss ratio for demand accesses (Ratio)
system.cpu.dcache.overallMshrMissRate::cpu.data     0.000017                       # mshr miss ratio for overall accesses (Ratio)
system.cpu.dcache.overallMshrMissRate::total     0.000017                       # mshr miss ratio for overall accesses (Ratio)
system.cpu.dcache.demandAvgMshrMissLatency::cpu.data 67384.326607                       # average overall mshr miss latency ((Tick/Count))
system.cpu.dcache.demandAvgMshrMissLatency::total 67384.326607                       # average overall mshr miss latency ((Tick/Count))
system.cpu.dcache.overallAvgMshrMissLatency::cpu.data 67384.326607                       # average overall mshr miss latency ((Tick/Count))
system.cpu.dcache.overallAvgMshrMissLatency::total 67384.326607                       # average overall mshr miss latency ((Tick/Count))
system.cpu.dcache.replacements                   1130                       # number of replacements (Count)
system.cpu.dcache.LockedRMWReadReq.hits::cpu.data        56821                       # number of LockedRMWReadReq hits (Count)
system.cpu.dcache.LockedRMWReadReq.hits::total        56821                       # number of LockedRMWReadReq hits (Count)
system.cpu.dcache.LockedRMWReadReq.misses::cpu.data            3                       # number of LockedRMWReadReq misses (Count)
system.cpu.dcache.LockedRMWReadReq.misses::total            3                       # number of LockedRMWReadReq misses (Count)
system.cpu.dcache.LockedRMWReadReq.missLatency::cpu.data       106500                       # number of LockedRMWReadReq miss ticks (Tick)
system.cpu.dcache.LockedRMWReadReq.missLatency::total       106500                       # number of LockedRMWReadReq miss ticks (Tick)
system.cpu.dcache.LockedRMWReadReq.accesses::cpu.data        56824                       # number of LockedRMWReadReq accesses(hits+misses) (Count)
system.cpu.dcache.LockedRMWReadReq.accesses::total        56824                       # number of LockedRMWReadReq accesses(hits+misses) (Count)
system.cpu.dcache.LockedRMWReadReq.missRate::cpu.data     0.000053                       # miss rate for LockedRMWReadReq accesses (Ratio)
system.cpu.dcache.LockedRMWReadReq.missRate::total     0.000053                       # miss rate for LockedRMWReadReq accesses (Ratio)
system.cpu.dcache.LockedRMWReadReq.avgMissLatency::cpu.data        35500                       # average LockedRMWReadReq miss latency ((Tick/Count))
system.cpu.dcache.LockedRMWReadReq.avgMissLatency::total        35500                       # average LockedRMWReadReq miss latency ((Tick/Count))
system.cpu.dcache.LockedRMWReadReq.mshrMisses::cpu.data            3                       # number of LockedRMWReadReq MSHR misses (Count)
system.cpu.dcache.LockedRMWReadReq.mshrMisses::total            3                       # number of LockedRMWReadReq MSHR misses (Count)
system.cpu.dcache.LockedRMWReadReq.mshrMissLatency::cpu.data    213297000                       # number of LockedRMWReadReq MSHR miss ticks (Tick)
system.cpu.dcache.LockedRMWReadReq.mshrMissLatency::total    213297000                       # number of LockedRMWReadReq MSHR miss ticks (Tick)
system.cpu.dcache.LockedRMWReadReq.mshrMissRate::cpu.data     0.000053                       # mshr miss rate for LockedRMWReadReq accesses (Ratio)
system.cpu.dcache.LockedRMWReadReq.mshrMissRate::total     0.000053                       # mshr miss rate for LockedRMWReadReq accesses (Ratio)
system.cpu.dcache.LockedRMWReadReq.avgMshrMissLatency::cpu.data     71099000                       # average LockedRMWReadReq mshr miss latency ((Tick/Count))
system.cpu.dcache.LockedRMWReadReq.avgMshrMissLatency::total     71099000                       # average LockedRMWReadReq mshr miss latency ((Tick/Count))
system.cpu.dcache.LockedRMWWriteReq.hits::cpu.data        56824                       # number of LockedRMWWriteReq hits (Count)
system.cpu.dcache.LockedRMWWriteReq.hits::total        56824                       # number of LockedRMWWriteReq hits (Count)
system.cpu.dcache.LockedRMWWriteReq.accesses::cpu.data        56824                       # number of LockedRMWWriteReq accesses(hits+misses) (Count)
system.cpu.dcache.LockedRMWWriteReq.accesses::total        56824                       # number of LockedRMWWriteReq accesses(hits+misses) (Count)
system.cpu.dcache.ReadReq.hits::cpu.data     83163800                       # number of ReadReq hits (Count)
system.cpu.dcache.ReadReq.hits::total        83163800                       # number of ReadReq hits (Count)
system.cpu.dcache.ReadReq.misses::cpu.data         6662                       # number of ReadReq misses (Count)
system.cpu.dcache.ReadReq.misses::total          6662                       # number of ReadReq misses (Count)
system.cpu.dcache.ReadReq.missLatency::cpu.data    393913500                       # number of ReadReq miss ticks (Tick)
system.cpu.dcache.ReadReq.missLatency::total    393913500                       # number of ReadReq miss ticks (Tick)
system.cpu.dcache.ReadReq.accesses::cpu.data     83170462                       # number of ReadReq accesses(hits+misses) (Count)
system.cpu.dcache.ReadReq.accesses::total     83170462                       # number of ReadReq accesses(hits+misses) (Count)
system.cpu.dcache.ReadReq.missRate::cpu.data     0.000080                       # miss rate for ReadReq accesses (Ratio)
system.cpu.dcache.ReadReq.missRate::total     0.000080                       # miss rate for ReadReq accesses (Ratio)
system.cpu.dcache.ReadReq.avgMissLatency::cpu.data 59128.414890                       # average ReadReq miss latency ((Tick/Count))
system.cpu.dcache.ReadReq.avgMissLatency::total 59128.414890                       # average ReadReq miss latency ((Tick/Count))
system.cpu.dcache.ReadReq.mshrHits::cpu.data         5150                       # number of ReadReq MSHR hits (Count)
system.cpu.dcache.ReadReq.mshrHits::total         5150                       # number of ReadReq MSHR hits (Count)
system.cpu.dcache.ReadReq.mshrMisses::cpu.data         1512                       # number of ReadReq MSHR misses (Count)
system.cpu.dcache.ReadReq.mshrMisses::total         1512                       # number of ReadReq MSHR misses (Count)
system.cpu.dcache.ReadReq.mshrMissLatency::cpu.data    100481500                       # number of ReadReq MSHR miss ticks (Tick)
system.cpu.dcache.ReadReq.mshrMissLatency::total    100481500                       # number of ReadReq MSHR miss ticks (Tick)
system.cpu.dcache.ReadReq.mshrMissRate::cpu.data     0.000018                       # mshr miss rate for ReadReq accesses (Ratio)
system.cpu.dcache.ReadReq.mshrMissRate::total     0.000018                       # mshr miss rate for ReadReq accesses (Ratio)
system.cpu.dcache.ReadReq.avgMshrMissLatency::cpu.data 66456.018519                       # average ReadReq mshr miss latency ((Tick/Count))
system.cpu.dcache.ReadReq.avgMshrMissLatency::total 66456.018519                       # average ReadReq mshr miss latency ((Tick/Count))
system.cpu.dcache.WriteReq.hits::cpu.data     39584389                       # number of WriteReq hits (Count)
system.cpu.dcache.WriteReq.hits::total       39584389                       # number of WriteReq hits (Count)
system.cpu.dcache.WriteReq.misses::cpu.data          622                       # number of WriteReq misses (Count)
system.cpu.dcache.WriteReq.misses::total          622                       # number of WriteReq misses (Count)
system.cpu.dcache.WriteReq.missLatency::cpu.data     43961500                       # number of WriteReq miss ticks (Tick)
system.cpu.dcache.WriteReq.missLatency::total     43961500                       # number of WriteReq miss ticks (Tick)
system.cpu.dcache.WriteReq.accesses::cpu.data     39585011                       # number of WriteReq accesses(hits+misses) (Count)
system.cpu.dcache.WriteReq.accesses::total     39585011                       # number of WriteReq accesses(hits+misses) (Count)
system.cpu.dcache.WriteReq.missRate::cpu.data     0.000016                       # miss rate for WriteReq accesses (Ratio)
system.cpu.dcache.WriteReq.missRate::total     0.000016                       # miss rate for WriteReq accesses (Ratio)
system.cpu.dcache.WriteReq.avgMissLatency::cpu.data 70677.652733                       # average WriteReq miss latency ((Tick/Count))
system.cpu.dcache.WriteReq.avgMissLatency::total 70677.652733                       # average WriteReq miss latency ((Tick/Count))
system.cpu.dcache.WriteReq.mshrHits::cpu.data            3                       # number of WriteReq MSHR hits (Count)
system.cpu.dcache.WriteReq.mshrHits::total            3                       # number of WriteReq MSHR hits (Count)
system.cpu.dcache.WriteReq.mshrMisses::cpu.data          619                       # number of WriteReq MSHR misses (Count)
system.cpu.dcache.WriteReq.mshrMisses::total          619                       # number of WriteReq MSHR misses (Count)
system.cpu.dcache.WriteReq.mshrMissLatency::cpu.data     43114500                       # number of WriteReq MSHR miss ticks (Tick)
system.cpu.dcache.WriteReq.mshrMissLatency::total     43114500                       # number of WriteReq MSHR miss ticks (Tick)
system.cpu.dcache.WriteReq.mshrMissRate::cpu.data     0.000016                       # mshr miss rate for WriteReq accesses (Ratio)
system.cpu.dcache.WriteReq.mshrMissRate::total     0.000016                       # mshr miss rate for WriteReq accesses (Ratio)
system.cpu.dcache.WriteReq.avgMshrMissLatency::cpu.data 69651.857835                       # average WriteReq mshr miss latency ((Tick/Count))
system.cpu.dcache.WriteReq.avgMshrMissLatency::total 69651.857835                       # average WriteReq mshr miss latency ((Tick/Count))
system.cpu.dcache.power_state.pwrStateResidencyTicks::UNDEFINED 115209614000                       # Cumulative time (in ticks) in various power states (Tick)
system.cpu.dcache.tags.tagsInUse          1003.535763                       # Average ticks per tags in use ((Tick/Count))
system.cpu.dcache.tags.totalRefs            122863968                       # Total number of references to valid blocks. (Count)
system.cpu.dcache.tags.sampledRefs               2134                       # Sample count of references to valid blocks. (Count)
system.cpu.dcache.tags.avgRefs           57574.492971                       # Average number of references to valid blocks. ((Count/Count))
system.cpu.dcache.tags.warmupTick              170500                       # The tick when the warmup percentage was hit. (Tick)
system.cpu.dcache.tags.occupancies::cpu.data  1003.535763                       # Average occupied blocks per tick, per requestor ((Count/Tick))
system.cpu.dcache.tags.avgOccs::cpu.data     0.980015                       # Average percentage of cache occupancy ((Ratio/Tick))
system.cpu.dcache.tags.avgOccs::total        0.980015                       # Average percentage of cache occupancy ((Ratio/Tick))
system.cpu.dcache.tags.occupanciesTaskId::1024         1004                       # Occupied blocks per task id (Count)
system.cpu.dcache.tags.ageTaskId_1024::0           22                       # Occupied blocks per task id, per block age (Count)
system.cpu.dcache.tags.ageTaskId_1024::4          982                       # Occupied blocks per task id, per block age (Count)
system.cpu.dcache.tags.ratioOccsTaskId::1024     0.980469                       # Ratio of occupied blocks and all blocks, per task id (Ratio)
system.cpu.dcache.tags.tagAccesses          245740376                       # Number of tag accesses (Count)
system.cpu.dcache.tags.dataAccesses         245740376                       # Number of data accesses (Count)
system.cpu.dcache.tags.power_state.pwrStateResidencyTicks::UNDEFINED 115209614000                       # Cumulative time (in ticks) in various power states (Tick)
system.cpu.decode.idleCycles                 75503768                       # Number of cycles decode is idle (Cycle)
system.cpu.decode.blockedCycles              18849274                       # Number of cycles decode is blocked (Cycle)
system.cpu.decode.runCycles                 124954257                       # Number of cycles decode is running (Cycle)
system.cpu.decode.unblockCycles               4712671                       # Number of cycles decode is unblocking (Cycle)
system.cpu.decode.squashCycles                6094997                       # Number of cycles decode is squashing (Cycle)
system.cpu.decode.branchResolved             49079183                       # Number of times decode resolved a branch (Count)
system.cpu.decode.branchMispred                 29115                       # Number of times decode detected a branch misprediction (Count)
system.cpu.decode.decodedInsts              834605546                       # Number of instructions handled by decode (Count)
system.cpu.decode.squashedInsts                  3194                       # Number of squashed instructions handled by decode (Count)
system.cpu.fetch.icacheStallCycles           82785161                       # Number of cycles fetch is stalled on an Icache miss (Cycle)
system.cpu.fetch.insts                      390237099                       # Number of instructions fetch has processed (Count)
system.cpu.fetch.branches                    83581326                       # Number of branches that fetch encountered (Count)
system.cpu.fetch.predictedBranches           62280200                       # Number of branches that fetch has predicted taken (Count)
system.cpu.fetch.cycles                     140885494                       # Number of cycles fetch has run and was not squashing or blocked (Cycle)
system.cpu.fetch.squashCycles                12248172                       # Number of cycles fetch has spent squashing (Cycle)
system.cpu.fetch.miscStallCycles                14560                       # Number of cycles fetch has spent waiting on interrupts, or bad addresses, or out of MSHRs (Cycle)
system.cpu.fetch.pendingTrapStallCycles        305653                       # Number of stall cycles due to pending traps (Cycle)
system.cpu.fetch.icacheWaitRetryStallCycles           13                       # Number of stall cycles due to full MSHR (Cycle)
system.cpu.fetch.cacheLines                  72893503                       # Number of cache lines fetched (Count)
system.cpu.fetch.icacheSquashes               2408085                       # Number of outstanding Icache misses that were squashed (Count)
system.cpu.fetch.nisnDist::samples          230114967                       # Number of instructions fetched each cycle (Total) (Count)
system.cpu.fetch.nisnDist::mean              3.724450                       # Number of instructions fetched each cycle (Total) (Count)
system.cpu.fetch.nisnDist::stdev             3.519533                       # Number of instructions fetched each cycle (Total) (Count)
system.cpu.fetch.nisnDist::underflows               0      0.00%      0.00% # Number of instructions fetched each cycle (Total) (Count)
system.cpu.fetch.nisnDist::0                 93109392     40.46%     40.46% # Number of instructions fetched each cycle (Total) (Count)
system.cpu.fetch.nisnDist::1                 10563467      4.59%     45.05% # Number of instructions fetched each cycle (Total) (Count)
system.cpu.fetch.nisnDist::2                  4912687      2.13%     47.19% # Number of instructions fetched each cycle (Total) (Count)
system.cpu.fetch.nisnDist::3                  1768535      0.77%     47.96% # Number of instructions fetched each cycle (Total) (Count)
system.cpu.fetch.nisnDist::4                  5262295      2.29%     50.24% # Number of instructions fetched each cycle (Total) (Count)
system.cpu.fetch.nisnDist::5                 22306139      9.69%     59.94% # Number of instructions fetched each cycle (Total) (Count)
system.cpu.fetch.nisnDist::6                 17820776      7.74%     67.68% # Number of instructions fetched each cycle (Total) (Count)
system.cpu.fetch.nisnDist::7                  3120753      1.36%     69.04% # Number of instructions fetched each cycle (Total) (Count)
system.cpu.fetch.nisnDist::8                 71250923     30.96%    100.00% # Number of instructions fetched each cycle (Total) (Count)
system.cpu.fetch.nisnDist::overflows                0      0.00%    100.00% # Number of instructions fetched each cycle (Total) (Count)
system.cpu.fetch.nisnDist::min_value                0                       # Number of instructions fetched each cycle (Total) (Count)
system.cpu.fetch.nisnDist::max_value                8                       # Number of instructions fetched each cycle (Total) (Count)
system.cpu.fetch.nisnDist::total            230114967                       # Number of instructions fetched each cycle (Total) (Count)
system.cpu.fetch.branchRate                  0.362736                       # Number of branch fetches per cycle (Ratio)
system.cpu.fetch.rate                        1.693596                       # Number of inst fetches per cycle ((Count/Cycle))
system.cpu.icache.demandHits::cpu.inst       72573386                       # number of demand (read+write) hits (Count)
system.cpu.icache.demandHits::total          72573386                       # number of demand (read+write) hits (Count)
system.cpu.icache.overallHits::cpu.inst      72573386                       # number of overall hits (Count)
system.cpu.icache.overallHits::total         72573386                       # number of overall hits (Count)
system.cpu.icache.demandMisses::cpu.inst       320117                       # number of demand (read+write) misses (Count)
system.cpu.icache.demandMisses::total          320117                       # number of demand (read+write) misses (Count)
system.cpu.icache.overallMisses::cpu.inst       320117                       # number of overall misses (Count)
system.cpu.icache.overallMisses::total         320117                       # number of overall misses (Count)
system.cpu.icache.demandMissLatency::cpu.inst   4272016500                       # number of demand (read+write) miss ticks (Tick)
system.cpu.icache.demandMissLatency::total   4272016500                       # number of demand (read+write) miss ticks (Tick)
system.cpu.icache.overallMissLatency::cpu.inst   4272016500                       # number of overall miss ticks (Tick)
system.cpu.icache.overallMissLatency::total   4272016500                       # number of overall miss ticks (Tick)
system.cpu.icache.demandAccesses::cpu.inst     72893503                       # number of demand (read+write) accesses (Count)
system.cpu.icache.demandAccesses::total      72893503                       # number of demand (read+write) accesses (Count)
system.cpu.icache.overallAccesses::cpu.inst     72893503                       # number of overall (read+write) accesses (Count)
system.cpu.icache.overallAccesses::total     72893503                       # number of overall (read+write) accesses (Count)
system.cpu.icache.demandMissRate::cpu.inst     0.004392                       # miss rate for demand accesses (Ratio)
system.cpu.icache.demandMissRate::total      0.004392                       # miss rate for demand accesses (Ratio)
system.cpu.icache.overallMissRate::cpu.inst     0.004392                       # miss rate for overall accesses (Ratio)
system.cpu.icache.overallMissRate::total     0.004392                       # miss rate for overall accesses (Ratio)
system.cpu.icache.demandAvgMissLatency::cpu.inst 13345.172234                       # average overall miss latency in ticks ((Tick/Count))
system.cpu.icache.demandAvgMissLatency::total 13345.172234                       # average overall miss latency in ticks ((Tick/Count))
system.cpu.icache.overallAvgMissLatency::cpu.inst 13345.172234                       # average overall miss latency ((Tick/Count))
system.cpu.icache.overallAvgMissLatency::total 13345.172234                       # average overall miss latency ((Tick/Count))
system.cpu.icache.blockedCycles::no_mshrs          312                       # number of cycles access was blocked (Cycle)
system.cpu.icache.blockedCycles::no_targets            0                       # number of cycles access was blocked (Cycle)
system.cpu.icache.blockedCauses::no_mshrs            8                       # number of times access was blocked (Count)
system.cpu.icache.blockedCauses::no_targets            0                       # number of times access was blocked (Count)
system.cpu.icache.avgBlocked::no_mshrs             39                       # average number of cycles each access was blocked ((Cycle/Count))
system.cpu.icache.avgBlocked::no_targets          nan                       # average number of cycles each access was blocked ((Cycle/Count))
system.cpu.icache.demandMshrHits::cpu.inst         1019                       # number of demand (read+write) MSHR hits (Count)
system.cpu.icache.demandMshrHits::total          1019                       # number of demand (read+write) MSHR hits (Count)
system.cpu.icache.overallMshrHits::cpu.inst         1019                       # number of overall MSHR hits (Count)
system.cpu.icache.overallMshrHits::total         1019                       # number of overall MSHR hits (Count)
system.cpu.icache.demandMshrMisses::cpu.inst       319098                       # number of demand (read+write) MSHR misses (Count)
system.cpu.icache.demandMshrMisses::total       319098                       # number of demand (read+write) MSHR misses (Count)
system.cpu.icache.overallMshrMisses::cpu.inst       319098                       # number of overall MSHR misses (Count)
system.cpu.icache.overallMshrMisses::total       319098                       # number of overall MSHR misses (Count)
system.cpu.icache.demandMshrMissLatency::cpu.inst   3916832000                       # number of demand (read+write) MSHR miss ticks (Tick)
system.cpu.icache.demandMshrMissLatency::total   3916832000                       # number of demand (read+write) MSHR miss ticks (Tick)
system.cpu.icache.overallMshrMissLatency::cpu.inst   3916832000                       # number of overall MSHR miss ticks (Tick)
system.cpu.icache.overallMshrMissLatency::total   3916832000                       # number of overall MSHR miss ticks (Tick)
system.cpu.icache.demandMshrMissRate::cpu.inst     0.004378                       # mshr miss ratio for demand accesses (Ratio)
system.cpu.icache.demandMshrMissRate::total     0.004378                       # mshr miss ratio for demand accesses (Ratio)
system.cpu.icache.overallMshrMissRate::cpu.inst     0.004378                       # mshr miss ratio for overall accesses (Ratio)
system.cpu.icache.overallMshrMissRate::total     0.004378                       # mshr miss ratio for overall accesses (Ratio)
system.cpu.icache.demandAvgMshrMissLatency::cpu.inst 12274.699309                       # average overall mshr miss latency ((Tick/Count))
system.cpu.icache.demandAvgMshrMissLatency::total 12274.699309                       # average overall mshr miss latency ((Tick/Count))
system.cpu.icache.overallAvgMshrMissLatency::cpu.inst 12274.699309                       # average overall mshr miss latency ((Tick/Count))
system.cpu.icache.overallAvgMshrMissLatency::total 12274.699309                       # average overall mshr miss latency ((Tick/Count))
system.cpu.icache.replacements                 318969                       # number of replacements (Count)
system.cpu.icache.ReadReq.hits::cpu.inst     72573386                       # number of ReadReq hits (Count)
system.cpu.icache.ReadReq.hits::total        72573386                       # number of ReadReq hits (Count)
system.cpu.icache.ReadReq.misses::cpu.inst       320117                       # number of ReadReq misses (Count)
system.cpu.icache.ReadReq.misses::total        320117                       # number of ReadReq misses (Count)
system.cpu.icache.ReadReq.missLatency::cpu.inst   4272016500                       # number of ReadReq miss ticks (Tick)
system.cpu.icache.ReadReq.missLatency::total   4272016500                       # number of ReadReq miss ticks (Tick)
system.cpu.icache.ReadReq.accesses::cpu.inst     72893503                       # number of ReadReq accesses(hits+misses) (Count)
system.cpu.icache.ReadReq.accesses::total     72893503                       # number of ReadReq accesses(hits+misses) (Count)
system.cpu.icache.ReadReq.missRate::cpu.inst     0.004392                       # miss rate for ReadReq accesses (Ratio)
system.cpu.icache.ReadReq.missRate::total     0.004392                       # miss rate for ReadReq accesses (Ratio)
system.cpu.icache.ReadReq.avgMissLatency::cpu.inst 13345.172234                       # average ReadReq miss latency ((Tick/Count))
system.cpu.icache.ReadReq.avgMissLatency::total 13345.172234                       # average ReadReq miss latency ((Tick/Count))
system.cpu.icache.ReadReq.mshrHits::cpu.inst         1019                       # number of ReadReq MSHR hits (Count)
system.cpu.icache.ReadReq.mshrHits::total         1019                       # number of ReadReq MSHR hits (Count)
system.cpu.icache.ReadReq.mshrMisses::cpu.inst       319098                       # number of ReadReq MSHR misses (Count)
system.cpu.icache.ReadReq.mshrMisses::total       319098                       # number of ReadReq MSHR misses (Count)
system.cpu.icache.ReadReq.mshrMissLatency::cpu.inst   3916832000                       # number of ReadReq MSHR miss ticks (Tick)
system.cpu.icache.ReadReq.mshrMissLatency::total   3916832000                       # number of ReadReq MSHR miss ticks (Tick)
system.cpu.icache.ReadReq.mshrMissRate::cpu.inst     0.004378                       # mshr miss rate for ReadReq accesses (Ratio)
system.cpu.icache.ReadReq.mshrMissRate::total     0.004378                       # mshr miss rate for ReadReq accesses (Ratio)
system.cpu.icache.ReadReq.avgMshrMissLatency::cpu.inst 12274.699309                       # average ReadReq mshr miss latency ((Tick/Count))
system.cpu.icache.ReadReq.avgMshrMissLatency::total 12274.699309                       # average ReadReq mshr miss latency ((Tick/Count))
system.cpu.icache.power_state.pwrStateResidencyTicks::UNDEFINED 115209614000                       # Cumulative time (in ticks) in various power states (Tick)
system.cpu.icache.tags.tagsInUse           127.990759                       # Average ticks per tags in use ((Tick/Count))
system.cpu.icache.tags.totalRefs             72892483                       # Total number of references to valid blocks. (Count)
system.cpu.icache.tags.sampledRefs             319097                       # Sample count of references to valid blocks. (Count)
system.cpu.icache.tags.avgRefs             228.433620                       # Average number of references to valid blocks. ((Count/Count))
system.cpu.icache.tags.warmupTick               82000                       # The tick when the warmup percentage was hit. (Tick)
system.cpu.icache.tags.occupancies::cpu.inst   127.990759                       # Average occupied blocks per tick, per requestor ((Count/Tick))
system.cpu.icache.tags.avgOccs::cpu.inst     0.999928                       # Average percentage of cache occupancy ((Ratio/Tick))
system.cpu.icache.tags.avgOccs::total        0.999928                       # Average percentage of cache occupancy ((Ratio/Tick))
system.cpu.icache.tags.occupanciesTaskId::1024          128                       # Occupied blocks per task id (Count)
system.cpu.icache.tags.ageTaskId_1024::0          101                       # Occupied blocks per task id, per block age (Count)
system.cpu.icache.tags.ageTaskId_1024::4           27                       # Occupied blocks per task id, per block age (Count)
system.cpu.icache.tags.ratioOccsTaskId::1024            1                       # Ratio of occupied blocks and all blocks, per task id (Ratio)
system.cpu.icache.tags.tagAccesses          146106103                       # Number of tag accesses (Count)
system.cpu.icache.tags.dataAccesses         146106103                       # Number of data accesses (Count)
system.cpu.icache.tags.power_state.pwrStateResidencyTicks::UNDEFINED 115209614000                       # Cumulative time (in ticks) in various power states (Tick)
system.cpu.iew.idleCycles                           0                       # Number of cycles IEW is idle (Cycle)
system.cpu.iew.squashCycles                   6094997                       # Number of cycles IEW is squashing (Cycle)
system.cpu.iew.blockCycles                   18651862                       # Number of cycles IEW is blocking (Cycle)
system.cpu.iew.unblockCycles                     2711                       # Number of cycles IEW is unblocking (Cycle)
system.cpu.iew.dispatchedInsts              749404842                       # Number of instructions dispatched to IQ (Count)
system.cpu.iew.dispSquashedInsts                  301                       # Number of squashed instructions skipped by dispatch (Count)
system.cpu.iew.dispLoadInsts                 98185255                       # Number of dispatched load instructions (Count)
system.cpu.iew.dispStoreInsts                52129581                       # Number of dispatched store instructions (Count)
system.cpu.iew.dispNonSpecInsts                 56905                       # Number of dispatched non-speculative instructions (Count)
system.cpu.iew.iqFullEvents                       800                       # Number of times the IQ has become full, causing a stall (Count)
system.cpu.iew.lsqFullEvents                     1547                       # Number of times the LSQ has become full, causing a stall (Count)
system.cpu.iew.memOrderViolationEvents            886                       # Number of memory order violations (Count)
system.cpu.iew.predictedTakenIncorrect        4303073                       # Number of branches that were predicted taken incorrectly (Count)
system.cpu.iew.predictedNotTakenIncorrect      3014717                       # Number of branches that were predicted not taken incorrectly (Count)
system.cpu.iew.branchMispredicts              7317790                       # Number of branch mispredicts detected at execute (Count)
system.cpu.iew.instsToCommit                690026820                       # Cumulative count of insts sent to commit (Count)
system.cpu.iew.writebackCount               687368391                       # Cumulative count of insts written-back (Count)
system.cpu.iew.producerInst                 474196415                       # Number of instructions producing a value (Count)
system.cpu.iew.consumerInst                 604915178                       # Number of instructions consuming a value (Count)
system.cpu.iew.wbRate                        2.983121                       # Insts written-back per cycle ((Count/Cycle))
system.cpu.iew.wbFanout                      0.783906                       # Average fanout of values written-back ((Count/Count))
system.cpu.interrupts.clk_domain.clock           8000                       # Clock period in ticks (Tick)
system.cpu.lsq0.forwLoads                     8906217                       # Number of loads that had data forwarded from stores (Count)
system.cpu.lsq0.squashedLoads                19860830                       # Number of loads squashed (Count)
system.cpu.lsq0.ignoredResponses                   19                       # Number of memory responses ignored because the instruction is squashed (Count)
system.cpu.lsq0.memOrderViolation                 886                       # Number of memory ordering violations (Count)
system.cpu.lsq0.squashedStores               12487747                       # Number of stores squashed (Count)
system.cpu.lsq0.rescheduledLoads                    5                       # Number of loads that were rescheduled (Count)
system.cpu.lsq0.blockedByCache                    258                       # Number of times an access to memory failed due to the cache being blocked (Count)
system.cpu.lsq0.loadToUse::samples           78324425                       # Distribution of cycle latency between the first time a load is issued and its completion (Unspecified)
system.cpu.lsq0.loadToUse::mean              3.073564                       # Distribution of cycle latency between the first time a load is issued and its completion (Unspecified)
system.cpu.lsq0.loadToUse::stdev             1.307162                       # Distribution of cycle latency between the first time a load is issued and its completion (Unspecified)
system.cpu.lsq0.loadToUse::0-9               78318750     99.99%     99.99% # Distribution of cycle latency between the first time a load is issued and its completion (Unspecified)
system.cpu.lsq0.loadToUse::10-19                  178      0.00%     99.99% # Distribution of cycle latency between the first time a load is issued and its completion (Unspecified)
system.cpu.lsq0.loadToUse::20-29                  323      0.00%     99.99% # Distribution of cycle latency between the first time a load is issued and its completion (Unspecified)
system.cpu.lsq0.loadToUse::30-39                   69      0.00%     99.99% # Distribution of cycle latency between the first time a load is issued and its completion (Unspecified)
system.cpu.lsq0.loadToUse::40-49                   47      0.00%     99.99% # Distribution of cycle latency between the first time a load is issued and its completion (Unspecified)
system.cpu.lsq0.loadToUse::50-59                   68      0.00%     99.99% # Distribution of cycle latency between the first time a load is issued and its completion (Unspecified)
system.cpu.lsq0.loadToUse::60-69                   81      0.00%     99.99% # Distribution of cycle latency between the first time a load is issued and its completion (Unspecified)
system.cpu.lsq0.loadToUse::70-79                  166      0.00%     99.99% # Distribution of cycle latency between the first time a load is issued and its completion (Unspecified)
system.cpu.lsq0.loadToUse::80-89                  102      0.00%     99.99% # Distribution of cycle latency between the first time a load is issued and its completion (Unspecified)
system.cpu.lsq0.loadToUse::90-99                   72      0.00%     99.99% # Distribution of cycle latency between the first time a load is issued and its completion (Unspecified)
system.cpu.lsq0.loadToUse::100-109                 98      0.00%     99.99% # Distribution of cycle latency between the first time a load is issued and its completion (Unspecified)
system.cpu.lsq0.loadToUse::110-119                169      0.00%     99.99% # Distribution of cycle latency between the first time a load is issued and its completion (Unspecified)
system.cpu.lsq0.loadToUse::120-129                534      0.00%    100.00% # Distribution of cycle latency between the first time a load is issued and its completion (Unspecified)
system.cpu.lsq0.loadToUse::130-139               2377      0.00%    100.00% # Distribution of cycle latency between the first time a load is issued and its completion (Unspecified)
system.cpu.lsq0.loadToUse::140-149                439      0.00%    100.00% # Distribution of cycle latency between the first time a load is issued and its completion (Unspecified)
[...]
system.mem_ctrl.dram.bytesWritten::total          320                       # Number of bytes written to this memory (Byte)
system.mem_ctrl.dram.numReads::cpu.inst          1422                       # Number of read requests responded to by this memory (Count)
system.mem_ctrl.dram.numReads::cpu.data          1901                       # Number of read requests responded to by this memory (Count)
system.mem_ctrl.dram.numReads::total             3323                       # Number of read requests responded to by this memory (Count)
system.mem_ctrl.dram.numWrites::writebacks            5                       # Number of write requests responded to by this memory (Count)
system.mem_ctrl.dram.numWrites::total               5                       # Number of write requests responded to by this memory (Count)
system.mem_ctrl.dram.bwRead::cpu.inst          789934                       # Total read bandwidth from this memory ((Byte/Second))
system.mem_ctrl.dram.bwRead::cpu.data         1056023                       # Total read bandwidth from this memory ((Byte/Second))
system.mem_ctrl.dram.bwRead::total            1845957                       # Total read bandwidth from this memory ((Byte/Second))
system.mem_ctrl.dram.bwInstRead::cpu.inst       789934                       # Instruction read bandwidth from this memory ((Byte/Second))
system.mem_ctrl.dram.bwInstRead::total         789934                       # Instruction read bandwidth from this memory ((Byte/Second))
system.mem_ctrl.dram.bwWrite::writebacks         2778                       # Write bandwidth from this memory ((Byte/Second))
system.mem_ctrl.dram.bwWrite::total              2778                       # Write bandwidth from this memory ((Byte/Second))
system.mem_ctrl.dram.bwTotal::writebacks         2778                       # Total bandwidth to/from this memory ((Byte/Second))
system.mem_ctrl.dram.bwTotal::cpu.inst         789934                       # Total bandwidth to/from this memory ((Byte/Second))
system.mem_ctrl.dram.bwTotal::cpu.data        1056023                       # Total bandwidth to/from this memory ((Byte/Second))
system.mem_ctrl.dram.bwTotal::total           1848735                       # Total bandwidth to/from this memory ((Byte/Second))
system.mem_ctrl.dram.readBursts                  3323                       # Number of DRAM read bursts (Count)
system.mem_ctrl.dram.writeBursts                    0                       # Number of DRAM write bursts (Count)
system.mem_ctrl.dram.perBankRdBursts::0           181                       # Per bank write bursts (Count)
system.mem_ctrl.dram.perBankRdBursts::1           260                       # Per bank write bursts (Count)
system.mem_ctrl.dram.perBankRdBursts::2           228                       # Per bank write bursts (Count)
system.mem_ctrl.dram.perBankRdBursts::3           207                       # Per bank write bursts (Count)
system.mem_ctrl.dram.perBankRdBursts::4           168                       # Per bank write bursts (Count)
system.mem_ctrl.dram.perBankRdBursts::5           133                       # Per bank write bursts (Count)
system.mem_ctrl.dram.perBankRdBursts::6           181                       # Per bank write bursts (Count)
system.mem_ctrl.dram.perBankRdBursts::7           262                       # Per bank write bursts (Count)
system.mem_ctrl.dram.perBankRdBursts::8           188                       # Per bank write bursts (Count)
system.mem_ctrl.dram.perBankRdBursts::9           237                       # Per bank write bursts (Count)
system.mem_ctrl.dram.perBankRdBursts::10          115                       # Per bank write bursts (Count)
system.mem_ctrl.dram.perBankRdBursts::11          180                       # Per bank write bursts (Count)
system.mem_ctrl.dram.perBankRdBursts::12          184                       # Per bank write bursts (Count)
system.mem_ctrl.dram.perBankRdBursts::13          207                       # Per bank write bursts (Count)
system.mem_ctrl.dram.perBankRdBursts::14          288                       # Per bank write bursts (Count)
system.mem_ctrl.dram.perBankRdBursts::15          304                       # Per bank write bursts (Count)
system.mem_ctrl.dram.perBankWrBursts::0             0                       # Per bank write bursts (Count)
system.mem_ctrl.dram.perBankWrBursts::1             0                       # Per bank write bursts (Count)
system.mem_ctrl.dram.perBankWrBursts::2             0                       # Per bank write bursts (Count)
system.mem_ctrl.dram.perBankWrBursts::3             0                       # Per bank write bursts (Count)
system.mem_ctrl.dram.perBankWrBursts::4             0                       # Per bank write bursts (Count)
system.mem_ctrl.dram.perBankWrBursts::5             0                       # Per bank write bursts (Count)
system.mem_ctrl.dram.perBankWrBursts::6             0                       # Per bank write bursts (Count)
system.mem_ctrl.dram.perBankWrBursts::7             0                       # Per bank write bursts (Count)
system.mem_ctrl.dram.perBankWrBursts::8             0                       # Per bank write bursts (Count)
system.mem_ctrl.dram.perBankWrBursts::9             0                       # Per bank write bursts (Count)
system.mem_ctrl.dram.perBankWrBursts::10            0                       # Per bank write bursts (Count)
system.mem_ctrl.dram.perBankWrBursts::11            0                       # Per bank write bursts (Count)
system.mem_ctrl.dram.perBankWrBursts::12            0                       # Per bank write bursts (Count)
system.mem_ctrl.dram.perBankWrBursts::13            0                       # Per bank write bursts (Count)
system.mem_ctrl.dram.perBankWrBursts::14            0                       # Per bank write bursts (Count)
system.mem_ctrl.dram.perBankWrBursts::15            0                       # Per bank write bursts (Count)
system.mem_ctrl.dram.totQLat                 26378500                       # Total ticks spent queuing (Tick)
system.mem_ctrl.dram.totBusLat               16615000                       # Total ticks spent in databus transfers (Tick)
system.mem_ctrl.dram.totMemAccLat            88684750                       # Total ticks spent from burst creation until serviced by the DRAM (Tick)
system.mem_ctrl.dram.avgQLat                  7938.16                       # Average queueing delay per DRAM burst ((Tick/Count))
system.mem_ctrl.dram.avgBusLat                5000.00                       # Average bus latency per DRAM burst ((Tick/Count))
system.mem_ctrl.dram.avgMemAccLat            26688.16                       # Average memory access latency per DRAM burst ((Tick/Count))
system.mem_ctrl.dram.readRowHits                 2680                       # Number of row buffer hits during reads (Count)
system.mem_ctrl.dram.writeRowHits                   0                       # Number of row buffer hits during writes (Count)
system.mem_ctrl.dram.readRowHitRate             80.65                       # Row buffer hit rate for reads (Ratio)
system.mem_ctrl.dram.writeRowHitRate              nan                       # Row buffer hit rate for writes (Ratio)
system.mem_ctrl.dram.bytesPerActivate::samples          633                       # Bytes accessed per row activation (Byte)
system.mem_ctrl.dram.bytesPerActivate::mean   332.031596                       # Bytes accessed per row activation (Byte)
system.mem_ctrl.dram.bytesPerActivate::gmean   203.303056                       # Bytes accessed per row activation (Byte)
system.mem_ctrl.dram.bytesPerActivate::stdev   330.154124                       # Bytes accessed per row activation (Byte)
system.mem_ctrl.dram.bytesPerActivate::0-127          194     30.65%     30.65% # Bytes accessed per row activation (Byte)
system.mem_ctrl.dram.bytesPerActivate::128-255          168     26.54%     57.19% # Bytes accessed per row activation (Byte)
system.mem_ctrl.dram.bytesPerActivate::256-383           73     11.53%     68.72% # Bytes accessed per row activation (Byte)
system.mem_ctrl.dram.bytesPerActivate::384-511           42      6.64%     75.36% # Bytes accessed per row activation (Byte)
system.mem_ctrl.dram.bytesPerActivate::512-639           28      4.42%     79.78% # Bytes accessed per row activation (Byte)
system.mem_ctrl.dram.bytesPerActivate::640-767           24      3.79%     83.57% # Bytes accessed per row activation (Byte)
system.mem_ctrl.dram.bytesPerActivate::768-895           15      2.37%     85.94% # Bytes accessed per row activation (Byte)
system.mem_ctrl.dram.bytesPerActivate::896-1023            8      1.26%     87.20% # Bytes accessed per row activation (Byte)
system.mem_ctrl.dram.bytesPerActivate::1024-1151           81     12.80%    100.00% # Bytes accessed per row activation (Byte)
system.mem_ctrl.dram.bytesPerActivate::total          633                       # Bytes accessed per row activation (Byte)
system.mem_ctrl.dram.bytesRead                 212672                       # Total bytes read (Byte)
system.mem_ctrl.dram.bytesWritten                   0                       # Total bytes written (Byte)
system.mem_ctrl.dram.avgRdBW                 1.845957                       # Average DRAM read bandwidth in MiBytes/s ((Byte/Second))
system.mem_ctrl.dram.avgWrBW                        0                       # Average DRAM write bandwidth in MiBytes/s ((Byte/Second))
system.mem_ctrl.dram.peakBW                  12800.00                       # Theoretical peak bandwidth in MiByte/s ((Byte/Second))
system.mem_ctrl.dram.busUtil                     0.01                       # Data bus utilization in percentage (Ratio)
system.mem_ctrl.dram.busUtilRead                 0.01                       # Data bus utilization in percentage for reads (Ratio)
system.mem_ctrl.dram.busUtilWrite                0.00                       # Data bus utilization in percentage for writes (Ratio)
system.mem_ctrl.dram.pageHitRate                80.65                       # Row buffer hit rate, read and write combined (Ratio)
system.mem_ctrl.dram.power_state.pwrStateResidencyTicks::UNDEFINED 115209614000                       # Cumulative time (in ticks) in various power states (Tick)
system.mem_ctrl.dram.rank0.actEnergy          2670360                       # Energy for activate commands per rank (pJ) (Joule)
system.mem_ctrl.dram.rank0.preEnergy          1404150                       # Energy for precharge commands per rank (pJ) (Joule)
system.mem_ctrl.dram.rank0.readEnergy        11566800                       # Energy for read commands per rank (pJ) (Joule)
system.mem_ctrl.dram.rank0.writeEnergy              0                       # Energy for write commands per rank (pJ) (Joule)
system.mem_ctrl.dram.rank0.refreshEnergy 9094213440.000002                       # Energy for refresh commands per rank (pJ) (Joule)
system.mem_ctrl.dram.rank0.actBackEnergy   1748604390                       # Energy for active background per rank (pJ) (Joule)
system.mem_ctrl.dram.rank0.preBackEnergy  42767983200                       # Energy for precharge background per rank (pJ) (Joule)
system.mem_ctrl.dram.rank0.actPowerDownEnergy            0                       # Energy for active power-down per rank (pJ) (Joule)
system.mem_ctrl.dram.rank0.prePowerDownEnergy            0                       # Energy for precharge power-down per rank (pJ) (Joule)
system.mem_ctrl.dram.rank0.selfRefreshEnergy            0                       # Energy for self refresh per rank (pJ) (Joule)
system.mem_ctrl.dram.rank0.totalEnergy    53626442340                       # Total energy per rank (pJ) (Joule)
system.mem_ctrl.dram.rank0.averagePower    465.468466                       # Core power per rank (mW) (Watt)
system.mem_ctrl.dram.rank0.totalIdleTime            0                       # Total Idle time Per DRAM Rank (Tick)
system.mem_ctrl.dram.rank0.pwrStateTime::IDLE 111170964000                       # Time in different power states (Tick)
system.mem_ctrl.dram.rank0.pwrStateTime::REF   3846960000                       # Time in different power states (Tick)
system.mem_ctrl.dram.rank0.pwrStateTime::SREF            0                       # Time in different power states (Tick)
system.mem_ctrl.dram.rank0.pwrStateTime::PRE_PDN            0                       # Time in different power states (Tick)
system.mem_ctrl.dram.rank0.pwrStateTime::ACT    191690000                       # Time in different power states (Tick)
system.mem_ctrl.dram.rank0.pwrStateTime::ACT_PDN            0                       # Time in different power states (Tick)
system.mem_ctrl.dram.rank1.actEnergy          1920660                       # Energy for activate commands per rank (pJ) (Joule)
system.mem_ctrl.dram.rank1.preEnergy           998085                       # Energy for precharge commands per rank (pJ) (Joule)
system.mem_ctrl.dram.rank1.readEnergy        12159420                       # Energy for read commands per rank (pJ) (Joule)
system.mem_ctrl.dram.rank1.writeEnergy              0                       # Energy for write commands per rank (pJ) (Joule)
system.mem_ctrl.dram.rank1.refreshEnergy 9094213440.000002                       # Energy for refresh commands per rank (pJ) (Joule)
system.mem_ctrl.dram.rank1.actBackEnergy   1741829940                       # Energy for active background per rank (pJ) (Joule)
system.mem_ctrl.dram.rank1.preBackEnergy  42773688000                       # Energy for precharge background per rank (pJ) (Joule)
system.mem_ctrl.dram.rank1.actPowerDownEnergy            0                       # Energy for active power-down per rank (pJ) (Joule)
system.mem_ctrl.dram.rank1.prePowerDownEnergy            0                       # Energy for precharge power-down per rank (pJ) (Joule)
system.mem_ctrl.dram.rank1.selfRefreshEnergy            0                       # Energy for self refresh per rank (pJ) (Joule)
system.mem_ctrl.dram.rank1.totalEnergy    53624809545                       # Total energy per rank (pJ) (Joule)
system.mem_ctrl.dram.rank1.averagePower    465.454294                       # Core power per rank (mW) (Watt)
system.mem_ctrl.dram.rank1.totalIdleTime            0                       # Total Idle time Per DRAM Rank (Tick)
system.mem_ctrl.dram.rank1.pwrStateTime::IDLE 111185922250                       # Time in different power states (Tick)
system.mem_ctrl.dram.rank1.pwrStateTime::REF   3846960000                       # Time in different power states (Tick)
system.mem_ctrl.dram.rank1.pwrStateTime::SREF            0                       # Time in different power states (Tick)
system.mem_ctrl.dram.rank1.pwrStateTime::PRE_PDN            0                       # Time in different power states (Tick)
system.mem_ctrl.dram.rank1.pwrStateTime::ACT    176731750                       # Time in different power states (Tick)
system.mem_ctrl.dram.rank1.pwrStateTime::ACT_PDN            0                       # Time in different power states (Tick)
system.mem_ctrl.power_state.pwrStateResidencyTicks::UNDEFINED 115209614000                       # Cumulative time (in ticks) in various power states (Tick)
system.membus.transDist::ReadResp                2727                       # Transaction distribution (Count)
system.membus.transDist::WritebackDirty             5                       # Transaction distribution (Count)
system.membus.transDist::CleanEvict               100                       # Transaction distribution (Count)
system.membus.transDist::ReadExReq                596                       # Transaction distribution (Count)
system.membus.transDist::ReadExResp               596                       # Transaction distribution (Count)
system.membus.transDist::ReadSharedReq           2727                       # Transaction distribution (Count)
system.membus.pktCount_system.l2cache.mem_side_port::system.mem_ctrl.port         6751                       # Packet count per connected requestor and responder (Count)
system.membus.pktCount_system.l2cache.mem_side_port::total         6751                       # Packet count per connected requestor and responder (Count)
system.membus.pktCount::total                    6751                       # Packet count per connected requestor and responder (Count)
system.membus.pktSize_system.l2cache.mem_side_port::system.mem_ctrl.port       212992                       # Cumulative packet size per connected requestor and responder (Byte)
system.membus.pktSize_system.l2cache.mem_side_port::total       212992                       # Cumulative packet size per connected requestor and responder (Byte)
system.membus.pktSize::total                   212992                       # Cumulative packet size per connected requestor and responder (Byte)
system.membus.snoops                                0                       # Total snoops (Count)
system.membus.snoopTraffic                          0                       # Total snoop traffic (Byte)
system.membus.snoopFanout::samples               3323                       # Request fanout histogram (Count)
system.membus.snoopFanout::mean                     0                       # Request fanout histogram (Count)
system.membus.snoopFanout::stdev                    0                       # Request fanout histogram (Count)
system.membus.snoopFanout::underflows               0      0.00%      0.00% # Request fanout histogram (Count)
system.membus.snoopFanout::0                     3323    100.00%    100.00% # Request fanout histogram (Count)
system.membus.snoopFanout::1                        0      0.00%    100.00% # Request fanout histogram (Count)
system.membus.snoopFanout::overflows                0      0.00%    100.00% # Request fanout histogram (Count)
system.membus.snoopFanout::min_value                0                       # Request fanout histogram (Count)
system.membus.snoopFanout::max_value                0                       # Request fanout histogram (Count)
system.membus.snoopFanout::total                 3323                       # Request fanout histogram (Count)
system.membus.power_state.pwrStateResidencyTicks::UNDEFINED 115209614000                       # Cumulative time (in ticks) in various power states (Tick)
system.membus.reqLayer2.occupancy             1724000                       # Layer occupancy (ticks) (Tick)
system.membus.reqLayer2.utilization               0.0                       # Layer utilization (Ratio)
system.membus.respLayer0.occupancy            9033250                       # Layer occupancy (ticks) (Tick)
system.membus.respLayer0.utilization              0.0                       # Layer utilization (Ratio)
system.membus.snoop_filter.totRequests           3428                       # Total number of requests made to the snoop filter. (Count)
system.membus.snoop_filter.hitSingleRequests          105                       # Number of requests hitting in the snoop filter with a single holder of the requested data. (Count)
system.membus.snoop_filter.hitMultiRequests            0                       # Number of requests hitting in the snoop filter with multiple (>1) holders of the requested data. (Count)
system.membus.snoop_filter.totSnoops                0                       # Total number of snoops made to the snoop filter. (Count)
system.membus.snoop_filter.hitSingleSnoops            0                       # Number of snoops hitting in the snoop filter with a single holder of the requested data. (Count)
system.membus.snoop_filter.hitMultiSnoops            0                       # Number of snoops hitting in the snoop filter with multiple (>1) holders of the requested data. (Count)
system.workload.inst.arm                            0                       # number of arm instructions executed (Count)
system.workload.inst.quiesce                        0                       # number of quiesce instructions executed (Count)

---------- End Simulation Statistics   ----------
